geometry optimzed in LAMMPS
_audit_creation_date              2020-12-01 
_audit_creation_method            'lammps2cif' 
_symmetry_space_group_name_H-M    'P1' 
_symmetry_Int_Tables_number       1 
_symmetry_cell_setting            triclinic 
loop_ 
_symmetry_equiv_pos_as_xyz 
  x,y,z 
_cell_length_a                    45.18621808 
_cell_length_b                    45.250246107063305 
_cell_length_c                    45.36894012835222 
_cell_angle_alpha                 89.56222724652972 
_cell_angle_beta                  89.36605728324294 
_cell_angle_gamma                 89.52073390281996 
loop_ 
_atom_site_label 
_atom_site_type_symbol 
_atom_site_fract_x 
_atom_site_fract_y 
_atom_site_fract_z 
_atom_site_charge 
C1          C  0.12126304  0.07605831  0.12029797     0.87300
C2          C  0.10181311  0.09727287  0.13834395    -0.52900
C3          C  0.08464233  0.11672302  0.12275486     0.10300
C4          C  0.08923138  0.11326304  0.08868980     0.21200
C5          C  0.09958862  0.06074910  0.09918864    -0.53600
C6          C  0.08271865  0.07968609  0.08203172     0.10400
C7          C  0.13926569  0.09715269  0.10047964    -0.53200
C8          C  0.12330260  0.11679782  0.08407564     0.10900
H9          H  0.10347907  0.09840378  0.16212863     0.15500
H10         H  0.07597084  0.12909270  0.07536608     0.01200
H11         H  0.09878358  0.03689598  0.09708064     0.15800
H12         H  0.16315953  0.09873996  0.10130621     0.15500
C13         C  0.94278545  0.07830155  0.94380454     0.87300
C14         C  0.96146826  0.09726453  0.92258311    -0.52900
C15         C  0.98100469  0.11613823  0.93513368     0.10300
C16         C  0.97982825  0.11441668  0.96945605     0.21200
C17         C  0.96553835  0.06243680  0.96375533    -0.53600
C18         C  0.98512771  0.08084679  0.97772939     0.10400
C19         C  0.92793914  0.10137006  0.96386721    -0.53200
C20         C  0.94660785  0.12053221  0.97706831     0.10900
H21         H  0.95751741  0.09740131  0.89903742     0.15500
H22         H  0.99520864  0.12981790  0.98030123     0.01200
H23         H  0.96630510  0.03856001  0.96614803     0.15800
H24         H  0.90422784  0.10487101  0.96533012     0.15500
C25         C  0.93877615  0.93416590  0.07484059     0.87300
C26         C  0.91908521  0.95088559  0.09698540    -0.52900
C27         C  0.93322798  0.96839549  0.11661552     0.10300
C28         C  0.96754376  0.96703025  0.11251196     0.21200
C29         C  0.95825374  0.95815535  0.06004604    -0.53600
C30         C  0.97371333  0.97547089  0.07939393     0.10400
C31         C  0.96009467  0.91691642  0.09482121    -0.53200
C32         C  0.97536039  0.93345809  0.11448817     0.10900
H33         H  0.89537054  0.94742738  0.09822380     0.15500
H34         H  0.97967664  0.98078899  0.12844299     0.01200
H35         H  0.95933529  0.96141794  0.03632910     0.15800
H36         H  0.96147409  0.89302758  0.09539603     0.15500
C37         C  0.07131327  0.93664572  0.93041342     0.87300
C38         C  0.09004891  0.91915696  0.95255649    -0.52900
C39         C  0.10563570  0.93545448  0.97224525     0.10300
C40         C  0.10081095  0.96951727  0.96760138     0.21200
C41         C  0.05162782  0.95686095  0.94924799    -0.53600
C42         C  0.06607562  0.97448891  0.96896411     0.10400
C43         C  0.09380691  0.95730278  0.91570684    -0.53200
C44         C  0.10955569  0.97443366  0.93440742     0.10900
H45         H  0.09310416  0.89543960  0.95087556     0.15500
H46         H  0.11345664  0.98332225  0.98307510     0.01200
H47         H  0.02769817  0.95696415  0.94714768     0.15800
H48         H  0.09875511  0.95689827  0.89223517     0.15500
C49         C  0.03072265  0.02633993  0.03279631    -0.01600
N50         N  0.75511364  0.83700937  0.51115603    -0.26400
N51         N  0.77768209  0.83933908  0.49252909    -0.34300
C52         C  0.78765941  0.86719909  0.49225899     0.01900
C53         C  0.77066022  0.88346489  0.51161610     0.07900
C54         C  0.75005841  0.86381818  0.52327723    -0.05200
H55         H  0.80729771  0.87447339  0.48052159     0.08600
H56         H  0.73372203  0.86830053  0.54031013     0.09800
Cu57       Cu  0.80049087  0.80370508  0.47609427     0.44200
Cu58       Cu  0.73628761  0.79555824  0.52070619     0.42000
Cu59       Cu  0.79133346  0.73605670  0.51608277     0.43900
N60         N  0.83546870  0.77679286  0.48676032    -0.33800
N61         N  0.83321330  0.75301395  0.50373906    -0.28100
C62         C  0.86075023  0.74518010  0.51247352    -0.04200
C63         C  0.88077874  0.76517180  0.50030942     0.08000
C64         C  0.86394125  0.78475008  0.48423149     0.01800
H65         H  0.86565280  0.72734180  0.52771277     0.09500
H66         H  0.87149742  0.80476556  0.47344342     0.08600
N67         N  0.74551800  0.72868452  0.52276373    -0.35300
N68         N  0.72571145  0.75037308  0.52427810    -0.27500
C69         C  0.69858076  0.73860367  0.52816195    -0.02700
C70         C  0.70097025  0.70787786  0.52921891     0.05900
C71         C  0.73129890  0.70260969  0.52572074     0.04000
H72         H  0.67856567  0.75168931  0.53033931     0.09100
H73         H  0.74237700  0.68134070  0.52561150     0.07900
N74         N  0.50636495  0.75158183  0.83759724    -0.26400
N75         N  0.48837470  0.77468518  0.83974498    -0.34300
C76         C  0.48716982  0.78392359  0.86774418     0.01900
C77         C  0.50523088  0.76595340  0.88426823     0.07900
C78         C  0.51713007  0.74549013  0.86467890    -0.05200
H79         H  0.47604128  0.80390665  0.87497085     0.08600
H80         H  0.53361254  0.72868112  0.86938822     0.09800
Cu81       Cu  0.47521892  0.80008194  0.80471592     0.44200
Cu82       Cu  0.51773073  0.73349909  0.79638717     0.42000
Cu83       Cu  0.51760492  0.79115764  0.73961695     0.43900
N84         N  0.49111919  0.83549202  0.78129283    -0.33800
N85         N  0.50881423  0.83286158  0.75806622    -0.28100
C86         C  0.52093115  0.85953532  0.75227999    -0.04200
C87         C  0.51028726  0.87941281  0.77314482     0.08000
C88         C  0.49152635  0.86341309  0.79105236     0.01800
H89         H  0.53730796  0.86376610  0.73522542     0.09500
H90         H  0.48063987  0.87093398  0.81102784     0.08600
N91         N  0.52259577  0.74581196  0.73057845    -0.35300
N92         N  0.52324830  0.72488369  0.75113135    -0.27500
C93         C  0.52763535  0.69848290  0.73799194    -0.02700
C94         C  0.52966674  0.70276423  0.70761935     0.05900
C95         C  0.52628305  0.73317282  0.70394851     0.04000
H96         H  0.52933616  0.67768419  0.74977722     0.09100
H97         H  0.52730226  0.74544790  0.68342279     0.07900
N98         N  0.54610096  0.75497850  0.22097103    -0.26400
N99         N  0.56326293  0.77849343  0.21951609    -0.34300
C100        C  0.56391857  0.78912662  0.19182395     0.01900
C101        C  0.54638585  0.77158223  0.17483870     0.07900
C102        C  0.53541154  0.74998455  0.19378707    -0.05200
H103        H  0.57448459  0.80951509  0.18513518     0.08600
H104        H  0.51962005  0.73300981  0.18858515     0.09800
Cu105      Cu  0.57676963  0.80167788  0.25544702     0.44200
Cu106      Cu  0.53530398  0.73445619  0.26136081     0.42000
Cu107      Cu  0.53310590  0.78953025  0.31952396     0.43900
N108        N  0.56234836  0.83572302  0.28148591    -0.33800
N109        N  0.54391803  0.83216508  0.30403230    -0.28100
C110        C  0.53287556  0.85899606  0.31148297    -0.04200
C111        C  0.54506453  0.87995702  0.29246716     0.08000
C112        C  0.56357977  0.86441383  0.27390211     0.01800
H113        H  0.51617002  0.86275099  0.32833662     0.09500
H114        H  0.57527753  0.87295734  0.25476120     0.08600
N115        N  0.52813454  0.74377268  0.32713177    -0.35300
N116        N  0.52868916  0.72363618  0.30610997    -0.27500
C117        C  0.52480558  0.69664598  0.31852797    -0.02700
C118        C  0.52182719  0.69970541  0.34895394     0.05900
C119        C  0.52406700  0.73005821  0.35332862     0.04000
H120        H  0.52421734  0.67628012  0.30623854     0.09100
H121        H  0.52233319  0.74158502  0.37406819     0.07900
N122        N  0.74900173  0.54088706  0.21841647    -0.26400
N123        N  0.77268395  0.55772136  0.21599778    -0.34300
C124        C  0.78035124  0.56089813  0.18750905     0.01900
C125        C  0.76062233  0.54541812  0.17091360     0.07900
C126        C  0.74086815  0.53292521  0.19102536    -0.05200
H127        H  0.80010826  0.57194431  0.17966488     0.08600
H128        H  0.72292379  0.51809081  0.18623124     0.09800
Cu129      Cu  0.79894516  0.56857352  0.25066198     0.44200
Cu130      Cu  0.73244508  0.52784320  0.26002616     0.42000
Cu131      Cu  0.79053352  0.52679677  0.31662358     0.43900
N132        N  0.83422329  0.55725470  0.27638149    -0.33800
N133        N  0.83227191  0.53986096  0.29984896    -0.28100
C134        C  0.86002188  0.53164297  0.30753186    -0.04200
C135        C  0.87984525  0.54456494  0.28769882     0.08000
C136        C  0.86269586  0.56057304  0.26842823     0.01800
H137        H  0.86527218  0.51638999  0.32523043     0.09500
H138        H  0.87016165  0.57209120  0.24875640     0.08600
N139        N  0.74502688  0.51998580  0.32554345    -0.35300
N140        N  0.72416971  0.52032243  0.30524050    -0.27500
C141        C  0.69761273  0.51613881  0.31857034    -0.02700
C142        C  0.70157894  0.51312127  0.34884136     0.05900
C143        C  0.73212033  0.51562120  0.35218454     0.04000
H144        H  0.67685544  0.51563012  0.30696277     0.09100
H145        H  0.74428024  0.51436019  0.37254464     0.07900
O146        O  0.52111390  0.80478713  0.98381343    -0.72100
O147        O  0.52883367  0.80779108  0.07330059    -0.73100
O148        O  0.56877543  0.80697389  0.02447169    -0.61700
O149        O  0.48095943  0.80898071  0.03271388    -0.70100
O150        O  0.47912433  0.75999219  0.03483320    -0.69700
O151        O  0.56954657  0.75792803  0.02652921    -0.60900
O152        O  0.52799005  0.75870573  0.07405633    -0.73400
O153        O  0.52076919  0.75578752  0.98714213    -0.72200
Cu154      Cu  0.52490877  0.80885748  0.02847337     1.04600
Cu155      Cu  0.52430778  0.75637279  0.03068377     1.04300
C156        C  0.51981396  0.77931566  0.97169846     0.94100
C157        C  0.52985078  0.78316387  0.08744904     0.93200
C158        C  0.58311524  0.78267759  0.02437551     0.85400
C159        C  0.46611289  0.78532215  0.03522195     0.91700
O160        O  0.74475972  0.57782092  0.02063415    -0.72100
O161        O  0.74894370  0.48788139  0.02560011    -0.73100
O162        O  0.74478284  0.53493957  0.06720168    -0.61700
O163        O  0.74584191  0.53043308  0.97975377    -0.70100
O164        O  0.79499057  0.53188805  0.97853946    -0.69700
O165        O  0.79386573  0.53695762  0.06816072    -0.60900
O166        O  0.79800054  0.49099667  0.02571044    -0.73400
O167        O  0.79392952  0.57827563  0.02054025    -0.72200
Cu168      Cu  0.74431836  0.53274667  0.02338005     1.04600
Cu169      Cu  0.79690580  0.53465381  0.02330321     1.04300
C170        C  0.76926007  0.59190053  0.01945321     0.94100
C171        C  0.77461994  0.47560286  0.02589152     0.93200
C172        C  0.76872971  0.53662738  0.08154913     0.85400
C173        C  0.77014102  0.52991308  0.96537343     0.91700
N174        N  0.79750658  0.72552151  0.00355064    -0.26400
N175        N  0.77414075  0.72473751  0.98631600    -0.34300
C176        C  0.76336925  0.69720767  0.98579099     0.01900
C177        C  0.78071447  0.67962599  0.00348419     0.07900
C178        C  0.80233498  0.69805070  0.01441443    -0.05200
H179        H  0.74292990  0.69107756  0.97533101     0.08600
H180        H  0.81910629  0.69233886  0.03036139     0.09800
Cu181      Cu  0.75101413  0.76156143  0.97347346     0.44200
Cu182      Cu  0.81732697  0.76573320  0.01430056     0.42000
Cu183      Cu  0.76140871  0.82397029  0.01934192     0.43900
N184        N  0.71625225  0.78513605  0.99078973    -0.33800
N185        N  0.71915195  0.80681072  0.00989596    -0.28100
C186        C  0.69224163  0.81228620  0.02221037    -0.04200
C187        C  0.67200763  0.79286060  0.01016722     0.08000
C188        C  0.68803733  0.77614670  0.99043671     0.01800
H189        H  0.68798979  0.82819107  0.03946060     0.09500
H190        H  0.68024447  0.75736375  0.97819923     0.08600
N191        N  0.80742875  0.83171189  0.02256517    -0.35300
N192        N  0.82759238  0.81038443  0.02076323    -0.27500
C193        C  0.85471247  0.82220841  0.02367939    -0.02700
C194        C  0.85191677  0.85262380  0.02749488     0.05900
C195        C  0.82141113  0.85765044  0.02662753     0.04000
H196        H  0.87499198  0.80937058  0.02327703     0.09100
H197        H  0.81006254  0.87860278  0.02932552     0.07900
N198        N  0.74611375  0.51329906  0.83156381    -0.26400
N199        N  0.77097679  0.49778683  0.83313430    -0.34300
C200        C  0.78032647  0.49695728  0.86109333     0.01900
C201        C  0.76050111  0.51268906  0.87808388     0.07900
C202        C  0.73891117  0.52273818  0.85888667    -0.05200
H203        H  0.80139698  0.48788427  0.86799318     0.08600
H204        H  0.72058216  0.53742582  0.86400674     0.09800
Cu205      Cu  0.79692641  0.48743834  0.79737616     0.44200
Cu206      Cu  0.72721083  0.52464969  0.79103053     0.42000
Cu207      Cu  0.78438727  0.52981015  0.73283748     0.43900
N208        N  0.83083047  0.50127543  0.77051546    -0.33800
N209        N  0.82714138  0.51892980  0.74749086    -0.28100
C210        C  0.85400193  0.52894144  0.73879778    -0.04200
C211        C  0.87509982  0.51686377  0.75753462     0.08000
C212        C  0.85962088  0.49955601  0.77722654     0.01800
H213        H  0.85771008  0.54479333  0.72119978     0.09500
H214        H  0.86834850  0.48819615  0.79636751     0.08600
N215        N  0.73864617  0.53488319  0.72572180    -0.35300
N216        N  0.71797730  0.53321449  0.74658164    -0.27500
C217        C  0.69120311  0.53769215  0.73427496    -0.02700
C218        C  0.69498040  0.54224045  0.70411670     0.05900
C219        C  0.72547095  0.54028415  0.69972257     0.04000
H220        H  0.67050982  0.53763692  0.74648028     0.09100
H221        H  0.73745011  0.54316185  0.67915407     0.07900
N222        N  0.30291393  0.83194341  0.55124721    -0.26400
N223        N  0.27889090  0.83376235  0.56806646    -0.34300
C224        C  0.26994604  0.86204602  0.56994427     0.01900
C225        C  0.28909145  0.87910729  0.55353573     0.07900
C226        C  0.30992109  0.85950109  0.54195679    -0.05200
H227        H  0.24954693  0.86928159  0.58043988     0.08600
H228        H  0.32768110  0.86463929  0.52662125     0.09800
Cu229      Cu  0.25309011  0.79830482  0.57935796     0.44200
Cu230      Cu  0.32112038  0.79072487  0.53922910     0.42000
Cu231      Cu  0.26409986  0.73375935  0.53627413     0.43900
N232        N  0.21850255  0.77296015  0.56569199    -0.33800
N233        N  0.22172795  0.75026864  0.54772176    -0.28100
C234        C  0.19476801  0.74331826  0.53727519    -0.04200
C235        C  0.17402155  0.76274676  0.54932892     0.08000
C236        C  0.18986955  0.78108884  0.56719562     0.01800
H237        H  0.19081298  0.72660308  0.52088726     0.09500
H238        H  0.18163033  0.80050415  0.57850602     0.08600
N239        N  0.30981705  0.72502760  0.53085645    -0.35300
N240        N  0.33040526  0.74563337  0.53198121    -0.27500
C241        C  0.35724221  0.73270857  0.52840188    -0.02700
C242        C  0.35373876  0.70236014  0.52490266     0.05900
C243        C  0.32316397  0.69856005  0.52653166     0.04000
H244        H  0.37782971  0.74470684  0.52836340     0.09100
H245        H  0.31130753  0.67802783  0.52458991     0.07900
O246        O  0.98324808  0.79824462  0.51490680    -0.72100
O247        O  0.07266290  0.79761845  0.52800379    -0.73100
O248        O  0.03472919  0.79811518  0.47807274    -0.61700
O249        O  0.02116550  0.80071572  0.56448741    -0.70100
O250        O  0.02086801  0.75167474  0.56739814    -0.69700
O251        O  0.03464136  0.74901303  0.47857509    -0.60900
O252        O  0.07143708  0.74857869  0.52943367    -0.73400
O253        O  0.98417692  0.74919253  0.51682958    -0.72200
Cu254      Cu  0.02797921  0.80039372  0.52127725     1.04600
Cu255      Cu  0.02779934  0.74787906  0.52309814     1.04300
C256        C  0.96987411  0.77337156  0.51400068     0.94100
C257        C  0.08583771  0.77256110  0.53093916     0.93200
C258        C  0.03666026  0.77364407  0.46458406     0.85400
C259        C  0.01884368  0.77707590  0.57960565     0.91700
O260        O  0.98020931  0.52766473  0.74290988    -0.72100
O261        O  0.06793327  0.53305616  0.74793168    -0.73100
O262        O  0.02720992  0.48550814  0.74941115    -0.61700
O263        O  0.02103363  0.57526593  0.74407941    -0.70100
O264        O  0.01780059  0.57642689  0.79295974    -0.69700
O265        O  0.02357687  0.48878244  0.79815296    -0.60900
O266        O  0.06555572  0.53530220  0.79680731    -0.73400
O267        O  0.97586498  0.52998010  0.79166049    -0.72200
Cu268      Cu  0.02420308  0.53026999  0.74435465     1.04600
Cu269      Cu  0.02055104  0.53269007  0.79660579     1.04300
C270        C  0.96417050  0.52811058  0.76613832     0.94100
C271        C  0.08062670  0.53505192  0.77271660     0.93200
C272        C  0.02656145  0.47330743  0.77500159     0.85400
C273        C  0.01846554  0.58972735  0.76816590     0.91700
N274        N  0.00764906  0.72523288  0.79043496    -0.26400
N275        N  0.98765152  0.72336836  0.76950652    -0.34300
C276        C  0.98589659  0.69532040  0.76030619     0.01900
C277        C  0.00567067  0.67853780  0.77618683     0.07900
C278        C  0.01914255  0.69799631  0.79524396    -0.05200
H279        H  0.97268695  0.68813390  0.74198849     0.08600
H280        H  0.03680814  0.69300010  0.81044169     0.09800
Cu281      Cu  0.97099474  0.75937522  0.74750097     0.44200
Cu282      Cu  0.01957579  0.76624434  0.80778250     0.42000
Cu283      Cu  0.01427035  0.82488313  0.75296535     0.43900
N284        N  0.98367145  0.78388893  0.71154112    -0.33800
N285        N  0.00177250  0.80665090  0.71268031    -0.28100
C286        C  0.01241572  0.81196032  0.68523583    -0.04200
C287        C  0.00035215  0.79136439  0.66643353     0.08000
C288        C  0.98231060  0.77406800  0.68377790     0.01800
H289        H  0.02912731  0.82815356  0.67979060     0.09500
H290        H  0.97127505  0.75403883  0.67730382     0.08600
N291        N  0.02213250  0.83267581  0.79770723    -0.35300
N292        N  0.02411893  0.81124617  0.81760918    -0.27500
C293        C  0.02870511  0.82332101  0.84422761    -0.02700
C294        C  0.02967982  0.85395419  0.84123630     0.05900
C295        C  0.02544110  0.85888926  0.81122883     0.04000
H296        H  0.03139423  0.81053078  0.86425516     0.09100
H297        H  0.02480860  0.87998354  0.79989694     0.07900
N298        N  0.21727734  0.54197533  0.75295404    -0.26400
N299        N  0.21497910  0.56139712  0.77451385    -0.34300
C300        C  0.18654277  0.56420811  0.78296020     0.01900
C301        C  0.16995528  0.54576258  0.76595917     0.07900
C302        C  0.18992877  0.53195419  0.74702126    -0.05200
H303        H  0.17886500  0.57715324  0.80153077     0.08600
H304        H  0.18514405  0.51497357  0.73114473     0.09800
Cu305      Cu  0.25007424  0.57602129  0.79834178     0.44200
Cu306      Cu  0.25856715  0.52828078  0.73596815     0.42000
Cu307      Cu  0.31560431  0.53247281  0.79155417     0.43900
N308        N  0.27424447  0.56314305  0.83415152    -0.33800
N309        N  0.29734194  0.54507948  0.83255566    -0.28100
C310        C  0.30335698  0.53524511  0.86007628    -0.04200
C311        C  0.28283758  0.54775518  0.87941549     0.08000
C312        C  0.26486773  0.56526348  0.86224373     0.01800
H313        H  0.32033598  0.51912967  0.86538843     0.09500
H314        H  0.24505679  0.57695190  0.86927062     0.08600
N315        N  0.32458410  0.52339591  0.74679082    -0.35300
N316        N  0.30373021  0.52112206  0.72667690    -0.27500
C317        C  0.31659850  0.51485043  0.70040569    -0.02700
C318        C  0.34713407  0.51338962  0.70384042     0.05900
C319        C  0.35119868  0.51896951  0.73367058     0.04000
H320        H  0.30457817  0.51199085  0.68015504     0.09100
H321        H  0.37203091  0.51934723  0.74517015     0.07900
N322        N  0.75762565  0.22343203  0.54397857    -0.26400
N323        N  0.78118730  0.22267787  0.56094717    -0.34300
C324        C  0.79092163  0.19473925  0.56397173     0.01900
C325        C  0.77261485  0.17672700  0.54830678     0.07900
C326        C  0.75157222  0.19545810  0.53581947    -0.05200
H327        H  0.81098271  0.18830278  0.57523430     0.08600
H328        H  0.73405258  0.18937945  0.52103625     0.09800
Cu329      Cu  0.80416097  0.25956223  0.57226030     0.44200
Cu330      Cu  0.73851424  0.26423007  0.53180298     0.42000
Cu331      Cu  0.79296179  0.32478029  0.52971097     0.43900
N332        N  0.83830362  0.28593632  0.55888111    -0.33800
N333        N  0.83534700  0.30879427  0.54081159    -0.28100
C334        C  0.86252593  0.31598468  0.53034221    -0.04200
C335        C  0.88299860  0.29645307  0.54257274     0.08000
C336        C  0.86686247  0.27792432  0.56047717     0.01800
H337        H  0.86682548  0.33289432  0.51389712     0.09500
H338        H  0.87489550  0.25837913  0.57183648     0.08600
N339        N  0.74683779  0.33108576  0.52608220    -0.35300
N340        N  0.72743409  0.30928748  0.52673325    -0.27500
C341        C  0.69994104  0.32088036  0.52447526    -0.02700
C342        C  0.70174096  0.35152662  0.52238110     0.05900
C343        C  0.73200582  0.35700908  0.52345138     0.04000
H344        H  0.68005862  0.30776040  0.52441638     0.09100
H345        H  0.74261785  0.37830962  0.52201831     0.07900
O346        O  0.75907033  0.98557434  0.53151658    -0.72100
O347        O  0.75920235  0.07302267  0.53953614    -0.73100
O348        O  0.75986521  0.03379467  0.49077090    -0.61700
O349        O  0.76156537  0.02479015  0.58051743    -0.70100
O350        O  0.81066179  0.02447418  0.57791256    -0.69700
O351        O  0.80902065  0.03328248  0.49044376    -0.60900
O352        O  0.80833698  0.07383517  0.53814449    -0.73400
O353        O  0.80819496  0.98392729  0.52983332    -0.72200
Cu354      Cu  0.75821056  0.02929874  0.53568522     1.04600
Cu355      Cu  0.81079176  0.02885678  0.53409100     1.04300
C356        C  0.78309531  0.97091767  0.52910449     0.94100
C357        C  0.78329674  0.08732595  0.53981849     0.93200
C358        C  0.78464490  0.03495101  0.47675250     0.85400
C359        C  0.78684245  0.02326699  0.59308394     0.91700
O360        O  0.53581174  0.06934648  0.76036460    -0.72100
O361        O  0.52894681  0.98182254  0.76027077    -0.73100
O362        O  0.48724111  0.02944993  0.76211569    -0.61700
O363        O  0.57744027  0.02189946  0.76177195    -0.70100
O364        O  0.57587479  0.02138300  0.81072335    -0.69700
O365        O  0.48815741  0.02908769  0.81105219    -0.60900
O366        O  0.52828181  0.98019104  0.80921035    -0.73400
O367        O  0.53582408  0.07022463  0.80930427    -0.72200
Cu368      Cu  0.53236789  0.02562416  0.75941306     1.04600
Cu369      Cu  0.53201407  0.02518528  0.81180113     1.04300
C370        C  0.53718153  0.08364676  0.78431284     0.94100
C371        C  0.52731746  0.96713961  0.78423363     0.93200
C372        C  0.47378295  0.03049812  0.78714135     0.85400
C373        C  0.59057456  0.02064182  0.78667944     0.91700
N374        N  0.72677808  0.01155342  0.80991036    -0.26400
N375        N  0.72522489  0.99415539  0.78671913    -0.34300
C376        C  0.69706660  0.99232312  0.77790014     0.01900
C377        C  0.67977143  0.00927853  0.79634739     0.07900
C378        C  0.69912376  0.02123424  0.81657356    -0.05200
H379        H  0.69005792  0.98113567  0.75820041     0.08600
H380        H  0.69373232  0.03679416  0.83384446     0.09800
Cu381      Cu  0.76119395  0.98120775  0.76210613     0.44200
Cu382      Cu  0.76798364  0.02287693  0.82763899     0.42000
Cu383      Cu  0.82659473  0.02312117  0.77097781     0.43900
N384        N  0.78677692  0.99426783  0.72695416    -0.33800
N385        N  0.80976231  0.01196988  0.72915808    -0.28100
C386        C  0.81679879  0.02195802  0.70177373    -0.04200
C387        C  0.79708881  0.00983771  0.68191278     0.08000
C388        C  0.77853532  0.99248022  0.69869466     0.01800
H389        H  0.83390846  0.03789885  0.69688233     0.09500
H390        H  0.75900514  0.98116552  0.69127417     0.08600
N391        N  0.83447774  0.02839968  0.81660393    -0.35300
N392        N  0.81317894  0.02845852  0.83691167    -0.27500
C393        C  0.82539975  0.03200157  0.86366928    -0.02700
C394        C  0.85600198  0.03420056  0.86048109     0.05900
C395        C  0.86074322  0.03181724  0.83014305     0.04000
H396        H  0.81276216  0.03282556  0.88402458     0.09100
H397        H  0.88178390  0.03290912  0.81861324     0.07900
N398        N  0.55502995  0.21776215  0.75507106    -0.26400
N399        N  0.57330365  0.21535833  0.77754837    -0.34300
C400        C  0.57347926  0.18743853  0.78776167     0.01900
C401        C  0.55446906  0.17119545  0.77105069     0.07900
C402        C  0.54311048  0.19091101  0.75033703    -0.05200
H403        H  0.58471871  0.18014701  0.80749556     0.08600
H404        H  0.52623317  0.18648108  0.73426639     0.09800
Cu405      Cu  0.58862635  0.25056519  0.80082880     0.44200
Cu406      Cu  0.54462118  0.25931853  0.73631291     0.42000
Cu407      Cu  0.54165798  0.31334420  0.79506625     0.43900
N408        N  0.57403680  0.27326008  0.83712310    -0.33800
N409        N  0.55426948  0.29491476  0.83581789    -0.28100
C410        C  0.54315601  0.29926931  0.86324176    -0.04200
C411        C  0.55666628  0.27919752  0.88223656     0.08000
C412        C  0.57607278  0.26322631  0.86495559     0.01800
H413        H  0.52542602  0.31458457  0.86861390     0.09500
H414        H  0.58877958  0.24396092  0.87156831     0.08600
N415        N  0.53674194  0.32446606  0.75020117    -0.35300
N416        N  0.53817555  0.30498242  0.72860671    -0.27500
C417        C  0.53490349  0.31944281  0.70262552    -0.02700
C418        C  0.53116127  0.34960267  0.70789479     0.05900
C419        C  0.53245061  0.35164412  0.73849321     0.04000
H420        H  0.53481947  0.30863891  0.68145328     0.09100
H421        H  0.53032183  0.37145811  0.75152649     0.07900
O422        O  0.25060586  0.53671100  0.98347717    -0.72100
O423        O  0.25584974  0.53334901  0.07318165    -0.73100
O424        O  0.25215599  0.57899033  0.02971752    -0.61700
O425        O  0.25126905  0.49103900  0.02732438    -0.70100
O426        O  0.30032885  0.48922359  0.02409291    -0.69700
O427        O  0.30122905  0.57949308  0.02650956    -0.60900
O428        O  0.30486877  0.53274855  0.06887153    -0.73400
O429        O  0.29974020  0.53590329  0.98141178    -0.72200
Cu430      Cu  0.25074940  0.53504936  0.02852543     1.04600
Cu431      Cu  0.30327281  0.53430829  0.02506874     1.04300
C432        C  0.27487858  0.53692137  0.96855917     0.94100
C433        C  0.28156488  0.53246969  0.08484633     0.93200
C434        C  0.27632995  0.59317934  0.02867964     0.85400
C435        C  0.27523744  0.47619514  0.02548237     0.91700
N436        N  0.32992098  0.81177144  0.04790913    -0.26400
N437        N  0.33153381  0.78752053  0.06429663    -0.34300
C438        C  0.35977996  0.77828153  0.06597826     0.01900
C439        C  0.37715026  0.79746413  0.04995747     0.07900
C440        C  0.35766787  0.81862409  0.03876933    -0.05200
H441        H  0.36676767  0.75762702  0.07598744     0.08600
H442        H  0.36302306  0.83648443  0.02369706     0.09800
Cu443      Cu  0.29601386  0.76154393  0.07487302     0.44200
Cu444      Cu  0.28857539  0.83026965  0.03577104     0.42000
Cu445      Cu  0.23435334  0.77118576  0.02839485     0.43900
N446        N  0.27302173  0.72638100  0.05896270    -0.33800
N447        N  0.25146433  0.72914150  0.03965836    -0.28100
C448        C  0.24612287  0.70216408  0.02832478    -0.04200
C449        C  0.26550285  0.68195506  0.04118931     0.08000
C450        C  0.28206121  0.69807793  0.06045149     0.01800
H451        H  0.23044124  0.69785435  0.01106168     0.09500
H452        H  0.30083380  0.69027422  0.07300258     0.08600
N453        N  0.22399389  0.81656794  0.02378896    -0.35300
N454        N  0.24334342  0.83818769  0.02647449    -0.27500
C455        C  0.22904382  0.86436593  0.02265676    -0.02700
C456        C  0.19915046  0.85918989  0.01744494     0.05900
C457        C  0.19712737  0.82845922  0.01830343     0.04000
H458        H  0.23966091  0.88565363  0.02371740     0.09100
H459        H  0.17753050  0.81543723  0.01489883     0.07900
O460        O  0.07140105  0.52922015  0.30702594    -0.72100
O461        O  0.98346633  0.53471574  0.30450494    -0.73100
O462        O  0.02477164  0.48695346  0.30318209    -0.61700
O463        O  0.03002577  0.57695954  0.30492355    -0.70100
O464        O  0.03154042  0.57670793  0.25595549    -0.69700
O465        O  0.02720944  0.48948676  0.25429349    -0.60900
O466        O  0.98416987  0.53563006  0.25555081    -0.73400
O467        O  0.07456694  0.53063828  0.25815688    -0.72200
Cu468      Cu  0.02736097  0.53190750  0.30665546     1.04600
Cu469      Cu  0.02945814  0.53314915  0.25428213     1.04300
C470        C  0.08692995  0.52929104  0.28347207     0.94100
C471        C  0.96985627  0.53591335  0.28013794     0.93200
C472        C  0.02490856  0.47440026  0.27791743     0.85400
C473        C  0.03170287  0.59067303  0.28012288     0.91700
N474        N  0.04884149  0.80093346  0.33034862    -0.26400
N475        N  0.06814360  0.77883124  0.33115463    -0.34300
C476        C  0.07027848  0.76845468  0.35884945     0.01900
C477        C  0.05155825  0.78480709  0.37648753     0.07900
C478        C  0.03824756  0.80533017  0.35791924    -0.05200
H479        H  0.08286245  0.74902241  0.36520203     0.08600
H480        H  0.02114222  0.82118761  0.36371408     0.09800
Cu481      Cu  0.08301397  0.75687357  0.29452033     0.44200
Cu482      Cu  0.03587104  0.82037440  0.29041328     0.42000
Cu483      Cu  0.03614711  0.76552326  0.23263958     0.43900
N484        N  0.06744555  0.72169913  0.27149303    -0.33800
N485        N  0.04781913  0.72416301  0.25020750    -0.28100
C486        C  0.03544849  0.69745183  0.24616838    -0.04200
C487        C  0.04799115  0.67774809  0.26610311     0.08000
C488        C  0.06815063  0.69378071  0.28160324     0.01800
H489        H  0.01740764  0.69319948  0.23134764     0.09500
H490        H  0.08033365  0.68644774  0.30075567     0.08600
N491        N  0.02986110  0.81084266  0.22476989    -0.35300
N492        N  0.02928727  0.83087311  0.24587281    -0.27500
C493        C  0.02461919  0.85777025  0.23364370    -0.02700
C494        C  0.02234580  0.85472327  0.20328192     0.05900
C495        C  0.02580915  0.82453222  0.19862546     0.04000
H496        H  0.02307910  0.87806678  0.24601982     0.09100
H497        H  0.02479467  0.81314967  0.17779334     0.07900
N498        N  0.30554524  0.52466346  0.22052026    -0.26400
N499        N  0.28216269  0.50743561  0.21878010    -0.34300
C500        C  0.27386499  0.50524169  0.19059174     0.01900
C501        C  0.29286713  0.52179382  0.17350742     0.07900
C502        C  0.31285780  0.53387799  0.19299609    -0.05200
H503        H  0.25412594  0.49414481  0.18337887     0.08600
H504        H  0.33037120  0.54927577  0.18776766     0.09800
Cu505      Cu  0.25691437  0.49492692  0.25438755     0.44200
Cu506      Cu  0.32277811  0.53642735  0.26161207     0.42000
Cu507      Cu  0.26624812  0.53462933  0.32075793     0.43900
N508        N  0.22193438  0.50611745  0.28116087    -0.33800
N509        N  0.22416600  0.52298716  0.30467853    -0.28100
C510        C  0.19654485  0.53178316  0.31277441    -0.04200
C511        C  0.17653202  0.51972599  0.29317037     0.08000
C512        C  0.19344653  0.50366651  0.27362428     0.01800
H513        H  0.19155029  0.54688369  0.33055428     0.09500
H514        H  0.18585878  0.49281692  0.25395454     0.08600
N515        N  0.31205758  0.54061490  0.32795096    -0.35300
N516        N  0.33224508  0.54170853  0.30656226    -0.27500
C517        C  0.35917107  0.54540640  0.31858717    -0.02700
C518        C  0.35618712  0.54646438  0.34910524     0.05900
C519        C  0.32584980  0.54335976  0.35405947     0.04000
H520        H  0.37955652  0.54676019  0.30594992     0.09100
H521        H  0.31450230  0.54336510  0.37517197     0.07900
O522        O  0.53856715  0.28960015  0.98417853    -0.72100
O523        O  0.53174543  0.29021812  0.07142285    -0.73100
O524        O  0.58014282  0.28985137  0.03075136    -0.61700
O525        O  0.49006395  0.28683442  0.02503607    -0.70100
O526        O  0.49294582  0.23782852  0.02577628    -0.69700
O527        O  0.58106911  0.24077409  0.03161492    -0.60900
O528        O  0.53348470  0.24117597  0.07357485    -0.73400
O529        O  0.54081791  0.24055514  0.98366770    -0.72200
Cu530      Cu  0.53502498  0.29081099  0.02780029     1.04600
Cu531      Cu  0.53711459  0.23831965  0.02867096     1.04300
C532        C  0.54111788  0.26552999  0.97008486     0.94100
C533        C  0.53158925  0.26633385  0.08633697     0.93200
C534        C  0.59454965  0.26534400  0.03206033     0.85400
C535        C  0.47754681  0.26149754  0.02472053     0.91700
N536        N  0.80686286  0.34102905  0.02625850    -0.26400
N537        N  0.78475996  0.34097070  0.04560682    -0.34300
C538        C  0.77418640  0.36847430  0.04909252     0.01900
C539        C  0.79028288  0.38702072  0.03123312     0.07900
C540        C  0.81101997  0.36917283  0.01697257    -0.05200
H541        H  0.75491814  0.37418967  0.06230780     0.08600
H542        H  0.82702484  0.37590861  0.00038546     0.09800
Cu543      Cu  0.76343792  0.30405226  0.06042533     0.44200
Cu544      Cu  0.82719727  0.30131857  0.01278537     0.42000
Cu545      Cu  0.77550340  0.23880989  0.02196783     0.43900
N546        N  0.72946065  0.27599367  0.05195904    -0.33800
N547        N  0.73278617  0.25223606  0.03550811    -0.28100
C548        C  0.70559716  0.24252314  0.02828993    -0.04200
C549        C  0.68462833  0.26139578  0.04089699     0.08000
C550        C  0.70058395  0.28224364  0.05563576     0.01800
H551        H  0.70144732  0.22422360  0.01373721     0.09500
H552        H  0.69196760  0.30187746  0.06628882     0.08600
N553        N  0.82134249  0.23427913  0.01380932    -0.35300
N554        N  0.83976623  0.25656310  0.00930704    -0.27500
C555        C  0.86733002  0.24553575  0.00473947    -0.02700
C556        C  0.86645877  0.21491740  0.00708094     0.05900
C557        C  0.83689153  0.20872801  0.01281122     0.04000
H558        H  0.88676162  0.25887470  0.00084380     0.09100
H559        H  0.82728272  0.18707466  0.01578596     0.07900
O560        O  0.52968628  0.98292565  0.30908727    -0.72100
O561        O  0.52508251  0.07092596  0.31053158    -0.73100
O562        O  0.48225857  0.02477980  0.30791458    -0.61700
O563        O  0.57244209  0.02877737  0.30879432    -0.70100
O564        O  0.57229864  0.02995384  0.25984223    -0.69700
O565        O  0.48428174  0.02607739  0.25898673    -0.60900
O566        O  0.52599657  0.07318535  0.26161812    -0.73400
O567        O  0.53075760  0.98301805  0.26013040    -0.72200
Cu568      Cu  0.52730068  0.02685534  0.31080037     1.04600
Cu569      Cu  0.52833302  0.02814118  0.25842256     1.04300
C570        C  0.53113953  0.96904714  0.28482936     0.94100
C571        C  0.52495041  0.08599600  0.28673709     0.93200
C572        C  0.46935793  0.02452054  0.28288345     0.85400
C573        C  0.58631747  0.02979585  0.28400313     0.91700
N574        N  0.80631860  0.04111757  0.34044183    -0.26400
N575        N  0.78262310  0.05843741  0.34166928    -0.34300
C576        C  0.77411773  0.06211187  0.36986493     0.01900
C577        C  0.79326609  0.04642387  0.38749318     0.07900
C578        C  0.81354719  0.03333554  0.36829058    -0.05200
H579        H  0.75400858  0.07334404  0.37678774     0.08600
H580        H  0.83109332  0.01799076  0.37400569     0.09800
Cu581      Cu  0.75661141  0.06811785  0.30613215     0.44200
Cu582      Cu  0.82395741  0.02627383  0.29990641     0.42000
Cu583      Cu  0.76513158  0.01862986  0.24612053     0.43900
N584        N  0.72124492  0.05282398  0.28307121    -0.33800
N585        N  0.72345685  0.03253011  0.26233801    -0.28100
C586        C  0.69597303  0.02261643  0.25662179    -0.04200
C587        C  0.67601129  0.03750480  0.27483054     0.08000
C588        C  0.69279002  0.05639819  0.29115520     0.01800
H589        H  0.69105043  0.00512514  0.24135502     0.09500
H590        H  0.68516965  0.07029147  0.30905219     0.08600
N591        N  0.81047153  0.01280169  0.23600557    -0.35300
N592        N  0.83199298  0.01560876  0.25533263    -0.27500
C593        C  0.85829459  0.01160646  0.24128721    -0.02700
C594        C  0.85331111  0.00616258  0.21155446     0.05900
C595        C  0.82256528  0.00704246  0.20933638     0.04000
H596        H  0.87953502  0.01303787  0.25191225     0.09100
H597        H  0.80970301  0.00377428  0.18969718     0.07900
N598        N  0.52242161  0.29863647  0.21970303    -0.26400
N599        N  0.50352500  0.27647763  0.21992970    -0.34300
C600        C  0.50135891  0.26534185  0.19272166     0.01900
C601        C  0.51964979  0.28116268  0.17422963     0.07900
C602        C  0.53270419  0.30227500  0.19183091    -0.05200
H603        H  0.48903504  0.24574686  0.18731370     0.08600
H604        H  0.54944793  0.31801081  0.18520611     0.09800
Cu605      Cu  0.48893021  0.25544682  0.25736022     0.44200
Cu606      Cu  0.53524843  0.31907184  0.25901087     0.42000
Cu607      Cu  0.53302363  0.26547735  0.31994124     0.43900
N608        N  0.50117278  0.22078317  0.28385163    -0.33800
N609        N  0.51984038  0.22332076  0.30588015    -0.28100
C610        C  0.52921542  0.19588933  0.31363890    -0.04200
C611        C  0.51565394  0.17562212  0.29535736     0.08000
C612        C  0.49813422  0.19221433  0.27689880     0.01800
H613        H  0.54573290  0.19119011  0.33014468     0.09500
H614        H  0.48593482  0.18434826  0.25816523     0.08600
N615        N  0.53985669  0.31119797  0.32541865    -0.35300
N616        N  0.54141967  0.33055577  0.30339788    -0.27500
C617        C  0.54575718  0.35777192  0.31460451    -0.02700
C618        C  0.54650627  0.35569531  0.34518393     0.05900
C619        C  0.54270377  0.32574594  0.35107235     0.04000
H620        H  0.54751597  0.37774889  0.30147594     0.09100
H621        H  0.54226483  0.31520116  0.37254956     0.07900
O622        O  0.25419133  0.98190416  0.54065565    -0.72100
O623        O  0.25558786  0.07223255  0.53658858    -0.73100
O624        O  0.25096155  0.02551246  0.49469938    -0.61700
O625        O  0.25538236  0.02853817  0.58224539    -0.70100
O626        O  0.30451813  0.02731343  0.58066179    -0.69700
O627        O  0.29995399  0.02421655  0.49058982    -0.60900
O628        O  0.30463630  0.06973210  0.53378095    -0.73400
O629        O  0.30328212  0.98193228  0.53760228    -0.72200
Cu630      Cu  0.25230612  0.02710502  0.53860805     1.04600
Cu631      Cu  0.30482272  0.02577091  0.53551358     1.04300
C632        C  0.27905743  0.96800588  0.54008587     0.94100
C633        C  0.28084259  0.08491661  0.53468060     0.93200
C634        C  0.27426778  0.02425902  0.47875639     0.85400
C635        C  0.28010306  0.02834802  0.59535395     0.91700
N636        N  0.25757461  0.03814171  0.73135916    -0.26400
N637        N  0.28035416  0.05612208  0.72871869    -0.34300
C638        C  0.28955952  0.05723022  0.70051654     0.01900
C639        C  0.27179929  0.03914190  0.68432685     0.07900
C640        C  0.25155237  0.02732090  0.70438857    -0.05200
H641        H  0.30902148  0.06884374  0.69276751     0.08600
H642        H  0.23466076  0.01119551  0.69995544     0.09800
Cu643      Cu  0.30394361  0.07089264  0.76382012     0.44200
Cu644      Cu  0.23972640  0.02787937  0.77321272     0.42000
Cu645      Cu  0.29618805  0.02868257  0.83052777     0.43900
N646        N  0.33932152  0.05881378  0.78906844    -0.33800
N647        N  0.33754145  0.04122009  0.81242472    -0.28100
C648        C  0.36518736  0.03166062  0.81886698    -0.04200
C649        C  0.38475788  0.04385018  0.79836312     0.08000
C650        C  0.36759592  0.06087832  0.77998270     0.01800
H651        H  0.37041961  0.01578179  0.83602140     0.09500
H652        H  0.37474076  0.07197250  0.75995473     0.08600
N653        N  0.25071652  0.02171145  0.83931354    -0.35300
N654        N  0.23035032  0.02237700  0.81851299    -0.27500
C655        C  0.20347486  0.01866032  0.83120005    -0.02700
C656        C  0.20675949  0.01510189  0.86144807     0.05900
C657        C  0.23715956  0.01701549  0.86567002     0.04000
H658        H  0.18298000  0.01792708  0.81913750     0.09100
H659        H  0.24855908  0.01544712  0.88647301     0.07900
O660        O  0.98458038  0.25936650  0.52824985    -0.72100
O661        O  0.07477674  0.25677795  0.52129078    -0.73100
O662        O  0.03252050  0.25652703  0.56873769    -0.61700
O663        O  0.02672587  0.25647842  0.48095497    -0.70100
O664        O  0.02762152  0.30551963  0.47939646    -0.69700
O665        O  0.03352730  0.30556007  0.56939569    -0.60900
O666        O  0.07450338  0.30586577  0.52096194    -0.73400
O667        O  0.98678857  0.30838690  0.52763586    -0.72200
Cu668      Cu  0.02962653  0.25554752  0.52483866     1.04600
Cu669      Cu  0.03065840  0.30803938  0.52433811     1.04300
C670        C  0.97178603  0.28477037  0.52898194     0.94100
C671        C  0.08855304  0.28143132  0.51992839     0.93200
C672        C  0.03386854  0.28058352  0.58299546     0.85400
C673        C  0.02618428  0.28055717  0.46628383     0.91700
N674        N  0.03982049  0.33780744  0.80128666    -0.26400
N675        N  0.05771941  0.34010125  0.77814436    -0.34300
C676        C  0.05914059  0.36841891  0.76930691     0.01900
C677        C  0.04132214  0.38497823  0.78763935     0.07900
C678        C  0.02933463  0.36506697  0.80782217    -0.05200
H679        H  0.07037924  0.37596208  0.74948710     0.08600
H680        H  0.01302755  0.36976438  0.82482596     0.09800
Cu681      Cu  0.07119746  0.30503823  0.75295477     0.44200
Cu682      Cu  0.02836173  0.29638344  0.81909192     0.42000
Cu683      Cu  0.02825889  0.24020945  0.76158479     0.43900
N684        N  0.05824254  0.28067123  0.71757488    -0.33800
N685        N  0.04028643  0.25781974  0.71973315    -0.28100
C686        C  0.03094865  0.25127308  0.69229408    -0.04200
C687        C  0.04371472  0.27117505  0.67243170     0.08000
C688        C  0.06078955  0.28934096  0.68929122     0.01800
H689        H  0.01515626  0.23422789  0.68732349     0.09500
H690        H  0.07264060  0.30874561  0.68185432     0.08600
N691        N  0.02242250  0.23073853  0.80716695    -0.35300
N692        N  0.02247752  0.25111111  0.82796887    -0.27500
C693        C  0.01908685  0.23778359  0.85455894    -0.02700
C694        C  0.01683090  0.20737801  0.85069780     0.05900
C695        C  0.01899449  0.20400354  0.82015250     0.04000
H696        H  0.01845176  0.24949959  0.87524049     0.09100
H697        H  0.01816324  0.18355582  0.80804585     0.07900
N698        N  0.30500199  0.22111688  0.52427431    -0.26400
N699        N  0.28382245  0.21826214  0.50465928    -0.34300
C700        C  0.27557063  0.18989734  0.50324296     0.01900
C701        C  0.29223685  0.17377403  0.52285086     0.07900
C702        C  0.31088213  0.19408261  0.53589204    -0.05200
H703        H  0.25722003  0.18200796  0.49043971     0.08600
H704        H  0.32641067  0.18978611  0.55342382     0.09800
Cu705      Cu  0.26017372  0.25313222  0.48777395     0.44200
Cu706      Cu  0.32080918  0.26335261  0.53539110     0.42000
Cu707      Cu  0.26505226  0.32180882  0.52610188     0.43900
N708        N  0.22403805  0.27947311  0.49609788    -0.33800
N709        N  0.22475624  0.30373634  0.51213365    -0.28100
C710        C  0.19664487  0.31108555  0.51971500    -0.04200
C711        C  0.17783759  0.29025472  0.50787781     0.08000
C712        C  0.19593524  0.27070348  0.49308863     0.01800
H713        H  0.19053315  0.32904965  0.53421897     0.09500
H714        H  0.18944760  0.25014889  0.48308198     0.08600
N715        N  0.30946285  0.33017890  0.53693931    -0.35300
N716        N  0.32950688  0.30890671  0.54017699    -0.27500
C717        C  0.35574218  0.32131416  0.54634513    -0.02700
C718        C  0.35246756  0.35197874  0.54710839     0.05900
C719        C  0.32258734  0.35658818  0.54110215     0.04000
H720        H  0.37576997  0.30871089  0.55022478     0.09100
H721        H  0.31119320  0.37764866  0.53960609     0.07900
N722        N  0.01150628  0.34051088  0.24860617    -0.26400
N723        N  0.99374269  0.34191096  0.27195145    -0.34300
C724        C  0.99194834  0.36984917  0.28151027     0.01900
C725        C  0.00945041  0.38710083  0.26359916     0.07900
C726        C  0.02153966  0.36802990  0.24276936    -0.05200
H727        H  0.98110143  0.37650362  0.30181474     0.08600
H728        H  0.03792752  0.37335499  0.22603623     0.09800
Cu729      Cu  0.98214074  0.30642342  0.29766713     0.44200
Cu730      Cu  0.02457259  0.29983341  0.22992576     0.42000
Cu731      Cu  0.02758950  0.24366748  0.28798007     0.43900
N732        N  0.99714360  0.28219140  0.33287937    -0.33800
N733        N  0.01583265  0.25975247  0.33007208    -0.28100
C734        C  0.02635083  0.25282712  0.35708287    -0.04200
C735        C  0.01363562  0.27211881  0.37740981     0.08000
C736        C  0.99533518  0.29032835  0.36125854     0.01800
H737        H  0.04297810  0.23604897  0.36138560     0.09500
H738        H  0.98315088  0.30941678  0.36918720     0.08600
N739        N  0.03436720  0.23465612  0.24278630    -0.35300
N740        N  0.03350743  0.25481237  0.22149420    -0.27500
C741        C  0.03846017  0.24129515  0.19532868    -0.02700
C742        C  0.04246737  0.21104135  0.20017116     0.05900
C743        C  0.03974176  0.20800783  0.23069521     0.04000
H744        H  0.03887706  0.25267656  0.17428255     0.09100
H745        H  0.04169145  0.18784634  0.24347673     0.07900
N746        N  0.33320872  0.01208305  0.26138372    -0.26400
N747        N  0.33569468  0.99564379  0.28543415    -0.34300
C748        C  0.36407508  0.99451913  0.29380907     0.01900
C749        C  0.38053064  0.01097935  0.27413947     0.07900
C750        C  0.36043695  0.02185669  0.25368191    -0.05200
H751        H  0.37176044  0.98428334  0.31398723     0.08600
H752        H  0.36501612  0.03687090  0.23555992     0.09800
Cu753      Cu  0.30028836  0.98340007  0.31109797     0.44200
Cu754      Cu  0.29128576  0.02219491  0.24404637     0.42000
Cu755      Cu  0.23202464  0.02226706  0.30040054     0.43900
N756        N  0.27381396  0.99643771  0.34555117    -0.33800
N757        N  0.24967750  0.01291726  0.34277706    -0.28100
C758        C  0.24205780  0.02304283  0.36990147    -0.04200
C759        C  0.26263258  0.01230983  0.39011197     0.08000
C760        C  0.28221597  0.99560893  0.37381748     0.01800
H761        H  0.22386013  0.03809843  0.37436322     0.09500
H762        H  0.30242304  0.98531388  0.38154965     0.08600
N763        N  0.22437125  0.02675762  0.25434013    -0.35300
N764        N  0.24597706  0.02680758  0.23434985    -0.27500
C765        C  0.23414421  0.02989750  0.20730492    -0.02700
C766        C  0.20343691  0.03189151  0.20981588     0.05900
C767        C  0.19824404  0.02981116  0.24020416     0.04000
H768        H  0.24720847  0.03079201  0.18722217     0.09100
H769        H  0.17698464  0.03081084  0.25134027     0.07900
N770        N  0.25673686  0.33869108  0.02466773    -0.26400
N771        N  0.28261116  0.34058574  0.01094318    -0.34300
C772        C  0.29050106  0.36897240  0.00815232     0.01900
C773        C  0.26863217  0.38618161  0.02057430     0.07900
C774        C  0.24734134  0.36646663  0.03090127    -0.05200
H775        H  0.31140161  0.37639219  0.99901254     0.08600
H776        H  0.22717107  0.37183530  0.04283971     0.09800
Cu777      Cu  0.30955116  0.30529567  0.00184842     0.44200
Cu778      Cu  0.23859767  0.29696832  0.03531015     0.42000
Cu779      Cu  0.29528462  0.23585490  0.03379070     0.43900
N780        N  0.34273402  0.27537831  0.00935152    -0.33800
N781        N  0.33873369  0.24977311  0.02292374    -0.28100
C782        C  0.36574642  0.23802477  0.02877920    -0.04200
C783        C  0.38721195  0.25751483  0.01825247     0.08000
C784        C  0.37172980  0.28077556  0.00618718     0.01800
H785        H  0.36947968  0.21758619  0.04074829     0.09500
H786        H  0.38082087  0.30106939  0.99731237     0.08600
N787        N  0.24910436  0.22999124  0.04011229    -0.35300
N788        N  0.22903640  0.25155916  0.04117235    -0.27500
C789        C  0.20202637  0.23948892  0.04562048    -0.02700
C790        C  0.20489139  0.20885583  0.04712769     0.05900
C791        C  0.23516519  0.20387864  0.04354338     0.04000
H792        H  0.18166296  0.25213435  0.04724449     0.09100
H793        H  0.24641655  0.18268892  0.04381700     0.07900
C794        C  0.48320309  0.43718485  0.62550555     0.87300
C795        C  0.46306232  0.41762005  0.60701840    -0.52900
C796        C  0.44333474  0.43197916  0.58924984     0.10300
C797        C  0.44536942  0.46622480  0.59216055     0.21200
C798        C  0.49810038  0.45834778  0.60296822    -0.53600
C799        C  0.47871103  0.47403479  0.58529461     0.10400
C800        C  0.46101677  0.45671121  0.64254782    -0.53200
C801        C  0.44110196  0.47189820  0.62580855     0.10900
H802        H  0.46305348  0.39376753  0.60956453     0.15500
H803        H  0.42926351  0.47847411  0.57827399     0.01200
H804        H  0.52195580  0.46015271  0.60105790     0.15800
H805        H  0.45908237  0.45678988  0.66636388     0.15500
C806        C  0.61384188  0.43519966  0.47863544     0.87300
C807        C  0.63347941  0.45508973  0.45934738    -0.52900
C808        C  0.61916321  0.47348628  0.44012275     0.10300
C809        C  0.58481520  0.46989187  0.44191186     0.21200
C810        C  0.59192804  0.45653057  0.49399954    -0.53600
C811        C  0.57621609  0.47504524  0.47530181     0.10400
C812        C  0.59518475  0.41884855  0.45599260    -0.53200
C813        C  0.58004530  0.43626426  0.43669030     0.10900
H814        H  0.65740137  0.45285256  0.45926448     0.15500
H815        H  0.57258269  0.48428233  0.42622364     0.01200
H816        H  0.58875677  0.45598212  0.51770461     0.15800
H817        H  0.59564826  0.39507778  0.45329278     0.15500
C818        C  0.61218086  0.62547805  0.57517413     0.87300
C819        C  0.63078510  0.60689334  0.59658800    -0.52900
C820        C  0.61542893  0.58928369  0.61574854     0.10300
C821        C  0.58135344  0.59266347  0.61234998     0.21200
C822        C  0.59185021  0.60287554  0.56000897    -0.53600
C823        C  0.57530055  0.58550056  0.57917763     0.10400
C824        C  0.59144128  0.64292558  0.59588630    -0.53200
C825        C  0.57520469  0.62643080  0.61536919     0.10900
H826        H  0.65469927  0.60859261  0.59752909     0.15500
H827        H  0.56849734  0.57891740  0.62821601     0.01200
H828        H  0.59102984  0.60099216  0.53623734     0.15800
H829        H  0.59126801  0.66682061  0.59710124     0.15500
C830        C  0.44065926  0.61719067  0.47950781     0.87300
C831        C  0.42279653  0.59824219  0.45841653    -0.52900
C832        C  0.43883127  0.58151262  0.43905677     0.10300
C833        C  0.47302320  0.58548312  0.44259946     0.21200
C834        C  0.46192788  0.59518245  0.49486469    -0.53600
C835        C  0.47931075  0.57836442  0.47604622     0.10400
C836        C  0.46049061  0.63523887  0.45849408    -0.53200
C837        C  0.47774975  0.61943816  0.43931025     0.10900
H838        H  0.39885538  0.59960525  0.45716412     0.15500
H839        H  0.48655832  0.57221984  0.42690358     0.01200
H840        H  0.46392694  0.59405055  0.51866556     0.15800
H841        H  0.45937728  0.65914451  0.45717068     0.15500
C842        C  0.52801963  0.52740534  0.53089133    -0.01600
C843        C  0.50426187  0.55824864  0.48726482    -0.15600
C844        C  0.50212959  0.54163435  0.51258152    -0.30800
H845        H  0.52514364  0.55860753  0.47525092     0.13400
H846        H  0.48051711  0.54202924  0.52312069     0.14000
C847        C  0.55397227  0.56124973  0.57004516    -0.15600
C848        C  0.54743240  0.55369400  0.54164045    -0.30800
H849        H  0.54373742  0.54901817  0.58800360     0.13400
H850        H  0.55762003  0.56655612  0.52405960     0.14000
C851        C  0.55234287  0.49697064  0.48612223    -0.15600
C852        C  0.55040074  0.50635368  0.51471546    -0.30800
H853        H  0.53655722  0.50531279  0.47022014     0.13400
H854        H  0.56763186  0.49841190  0.52930842     0.14000
C855        C  0.48822322  0.49544404  0.56067268    -0.15600
C856        C  0.51574566  0.50810479  0.55748290    -0.30800
H857        H  0.47148705  0.49996377  0.54434357     0.13400
H858        H  0.53207462  0.50181096  0.57376070     0.14000
C859        C  0.40586773  0.36571763  0.55453471    -0.12500
C860        C  0.37594246  0.37436763  0.55371306     0.09700
C861        C  0.36907780  0.40420268  0.55996999    -0.12500
C862        C  0.39123971  0.42398567  0.56899837    -0.12500
C863        C  0.42069014  0.41431534  0.57261196     0.09700
C864        C  0.42776107  0.38530739  0.56355865    -0.12500
H865        H  0.41255178  0.34347735  0.54878367     0.22000
H866        H  0.34644687  0.41209110  0.55886516     0.13600
H867        H  0.38499807  0.44641797  0.57416999     0.13600
H868        H  0.45035030  0.37721385  0.56436334     0.13600
C869        C  0.12029978  0.28248449  0.51681889    -0.12400
C870        C  0.14657467  0.28633615  0.51333378    -0.14000
C871        C  0.01997012  0.27536616  0.40842378    -0.12400
C872        C  0.02348513  0.27890509  0.43461323    -0.14000
C873        C  0.03599776  0.27881316  0.61478007    -0.12400
C874        C  0.03860376  0.27489737  0.64112338    -0.14000
C875        C  0.28789190  0.14285585  0.52978908    -0.12400
C876        C  0.28326614  0.11668647  0.53299674    -0.14000
C877        C  0.27083324  0.02227366  0.44713463    -0.12400
C878        C  0.26605947  0.01902192  0.42108353    -0.14000
C879        C  0.27959200  0.02984608  0.62709998    -0.12400
C880        C  0.27584819  0.03278840  0.65338083    -0.14000
C881        C  0.56808396  0.40477718  0.36032048    -0.12500
C882        C  0.55082724  0.37980543  0.36711500     0.09700
C883        C  0.53915268  0.37709552  0.39584329    -0.12500
C884        C  0.54593341  0.39776306  0.41758783    -0.12500
C885        C  0.56499161  0.42155722  0.41148141     0.09700
C886        C  0.57539029  0.42517959  0.38235326    -0.12500
H887        H  0.57760948  0.40746908  0.33847347     0.13600
H888        H  0.52548072  0.35840489  0.40182216     0.13600
H889        H  0.53796245  0.39397350  0.43989575     0.13600
H890        H  0.59112407  0.44220123  0.37705384     0.13600
C891        C  0.52096265  0.14420421  0.29258609    -0.12400
C892        C  0.52338003  0.11780236  0.28888516    -0.14000
C893        C  0.43766713  0.02171042  0.28093181    -0.12400
C894        C  0.41150857  0.01779229  0.27722272    -0.14000
C895        C  0.61817322  0.03093271  0.28257611    -0.12400
C896        C  0.64463412  0.03287696  0.27876224    -0.14000
C897        C  0.52567220  0.27435329  0.14372703    -0.12400
C898        C  0.52897032  0.26868850  0.11788818    -0.14000
C899        C  0.44568079  0.25914426  0.02325551    -0.12400
C900        C  0.41902847  0.25676928  0.02168432    -0.14000
C901        C  0.62640543  0.26479893  0.03417297    -0.12400
C902        C  0.65299612  0.26250348  0.03656404    -0.14000
C903        C  0.40756681  0.56312662  0.36366739    -0.12500
C904        C  0.37996517  0.55085240  0.37153055     0.09700
C905        C  0.37484357  0.54395542  0.40141240    -0.12500
C906        C  0.39571816  0.55096512  0.42290181    -0.12500
C907        C  0.42228719  0.56552449  0.41539728     0.09700
C908        C  0.42837081  0.57042391  0.38532985    -0.12500
H909        H  0.41251364  0.56865118  0.34090341     0.13600
H910        H  0.35426805  0.53390267  0.40842343     0.13600
H911        H  0.39021439  0.54666858  0.44582963     0.13600
H912        H  0.44811961  0.58177082  0.37859053     0.13600
C913        C  0.11873365  0.52762314  0.28616962    -0.12400
C914        C  0.14508788  0.52512395  0.29033122    -0.14000
C915        C  0.01704578  0.41735355  0.26945809    -0.12400
C916        C  0.02155354  0.44296891  0.27512062    -0.14000
C917        C  0.03944493  0.64787409  0.27288435    -0.12400
C918        C  0.03470771  0.62220367  0.27843471    -0.14000
C919        C  0.28938129  0.52763263  0.14243711    -0.12400
C920        C  0.28491289  0.53061941  0.11634786    -0.14000
C921        C  0.27331229  0.44438586  0.02486514    -0.12400
C922        C  0.27007927  0.41788197  0.02373413    -0.14000
C923        C  0.27034176  0.65114362  0.03427090    -0.12400
C924        C  0.27472957  0.62496774  0.03069270    -0.14000
C925        C  0.52513972  0.36895168  0.65543487    -0.12500
C926        C  0.52488298  0.37403670  0.68603503     0.09700
C927        C  0.51743764  0.40269420  0.69560036    -0.12500
C928        C  0.50746292  0.42443367  0.67570686    -0.12500
C929        C  0.50381540  0.41818121  0.64548867     0.09700
C930        C  0.51529677  0.39083007  0.63548060    -0.12500
H931        H  0.53188321  0.34767784  0.64683741     0.13600
H932        H  0.51812813  0.40823081  0.71871812     0.13600
H933        H  0.50167402  0.44583381  0.68454440     0.13600
H934        H  0.51458043  0.38541882  0.61229568     0.13600
C935        C  0.54949486  0.27279614  0.91271248    -0.12400
C936        C  0.54501352  0.26748824  0.93855671    -0.14000
C937        C  0.54607517  0.14097265  0.77703507    -0.12400
C938        C  0.54107643  0.11519834  0.78223512    -0.14000
C939        C  0.62233046  0.01818909  0.78842100    -0.12400
C940        C  0.64859738  0.01514429  0.79251206    -0.14000
C941        C  0.41583923  0.03744022  0.79378325    -0.12400
C942        C  0.44204364  0.03369076  0.78920714    -0.14000
C943        C  0.78584033  0.03829842  0.44511405    -0.12400
C944        C  0.78951812  0.04152853  0.41881628    -0.14000
C945        C  0.78920376  0.01992662  0.62470377    -0.12400
C946        C  0.79341047  0.01623700  0.65083556    -0.14000
C947        C  0.64847078  0.36375246  0.51031320    -0.12500
C948        C  0.67696389  0.37333845  0.51766370     0.09700
C949        C  0.68165827  0.40401156  0.51915807    -0.12500
C950        C  0.65960743  0.42425545  0.51034227    -0.12500
C951        C  0.63256872  0.41447010  0.49866095     0.09700
C952        C  0.62654739  0.38395831  0.50138078    -0.12500
H953        H  0.64331537  0.34046456  0.51006245     0.13600
H954        H  0.70278459  0.41248264  0.52603774     0.13600
H955        H  0.66471288  0.44758945  0.51044720     0.13600
H956        H  0.60527723  0.37518991  0.49547355     0.13600
C957        C  0.77705752  0.14539242  0.54409066    -0.12400
C958        C  0.78143428  0.11906901  0.54192163    -0.14000
C959        C  0.91396710  0.29241806  0.53550727    -0.12400
C960        C  0.94010377  0.28758541  0.53178647    -0.14000
C961        C  0.36381943  0.49049137  0.65544057    -0.12500
C962        C  0.37044513  0.50648854  0.68104951     0.09700
C963        C  0.40001535  0.51468568  0.68539273    -0.12500
C964        C  0.42246047  0.50578160  0.66568235    -0.12500
C965        C  0.41620587  0.48812813  0.64109820     0.09700
C966        C  0.38644910  0.48127569  0.63585116    -0.12500
H967        H  0.34134878  0.48365836  0.65134845     0.13600
H968        H  0.40601999  0.52740467  0.70449364     0.13600
H969        H  0.44514273  0.51138164  0.67054619     0.13600
H970        H  0.38079477  0.46706657  0.61788639     0.13600
C971        C  0.27856343  0.54194755  0.91050980    -0.12400
C972        C  0.27503559  0.53889609  0.93683346    -0.14000
C973        C  0.11234983  0.53740965  0.77276701    -0.12400
C974        C  0.13875788  0.54037070  0.76972918    -0.14000
C975        C  0.02988800  0.44179306  0.77843144    -0.12400
C976        C  0.03410520  0.41579214  0.78326443    -0.14000
C977        C  0.01583287  0.62143285  0.76812765    -0.12400
C978        C  0.01219128  0.64767408  0.77156069    -0.14000
C979        C  0.04527981  0.77906513  0.40717909    -0.12400
C980        C  0.04113964  0.77464862  0.43317929    -0.14000
C981        C  0.01357810  0.77988366  0.61073241    -0.12400
C982        C  0.00827908  0.78534844  0.63625639    -0.14000
C983        C  0.37020246  0.64923839  0.51642016    -0.12500
C984        C  0.37731602  0.67933401  0.51910545     0.09700
C985        C  0.40720476  0.68720095  0.51531242    -0.12500
C986        C  0.42855116  0.66631636  0.50617334    -0.12500
C987        C  0.42067572  0.63694239  0.49954919     0.09700
C988        C  0.39157894  0.62836747  0.50725650    -0.12500
H989        H  0.34782763  0.64178043  0.52039162     0.13600
H990        H  0.41412468  0.70978338  0.51831274     0.13600
H991        H  0.45103941  0.67377362  0.50294339     0.13600
H992        H  0.38470503  0.60570183  0.50462692     0.13600
C993        C  0.14321156  0.76668859  0.54172770    -0.12400
C994        C  0.11725336  0.77065765  0.53637116    -0.14000
C995        C  0.28489777  0.91011823  0.54693008    -0.12400
C996        C  0.28063802  0.93628990  0.54302836    -0.14000
C997        C  0.64327560  0.55894222  0.68939263    -0.12500
C998        C  0.67208647  0.54946988  0.68147488     0.09700
C999        C  0.67943985  0.54829052  0.65134236    -0.12500
C1000       C  0.65976043  0.55874067  0.63002640    -0.12500
C1001       C  0.63207197  0.57099626  0.63801903     0.09700
C1002       C  0.62343063  0.56934965  0.66783500    -0.12500
H1003       H  0.63647002  0.55958979  0.71231435     0.13600
H1004       H  0.70085091  0.54012012  0.64407937     0.13600
H1005       H  0.66686609  0.55849521  0.60714983     0.13600
H1006       H  0.60201093  0.57744895  0.67482710     0.13600
C1007       C  0.90627025  0.52312420  0.75940385    -0.12400
C1008       C  0.93254490  0.52614964  0.76303854    -0.14000
C1009       C  0.76475810  0.52071219  0.90836119    -0.12400
C1010       C  0.76879203  0.52598673  0.93403740    -0.14000
C1011       C  0.77001208  0.62348108  0.01600679    -0.12400
C1012       C  0.77470746  0.64933580  0.01129819    -0.14000
C1013       C  0.78411330  0.41801733  0.02724051    -0.12400
C1014       C  0.77808905  0.44403655  0.02623112    -0.14000
C1015       C  0.64115553  0.78836154  0.01767586    -0.12400
C1016       C  0.61494959  0.78404907  0.02150296    -0.14000
C1017       C  0.43438480  0.78803020  0.03899864    -0.12400
C1018       C  0.40824519  0.79289817  0.04318953    -0.14000
C1019       C  0.64878292  0.50159707  0.36573766    -0.12500
C1020       C  0.67857060  0.50765095  0.37248768     0.09700
C1021       C  0.68641693  0.50773077  0.40237986    -0.12500
C1022       C  0.66607215  0.49955048  0.42442896    -0.12500
C1023       C  0.63716508  0.49047215  0.41749976     0.09700
C1024       C  0.62826868  0.49348671  0.38802432    -0.12500
H1025       H  0.64144446  0.50211751  0.34312892     0.13600
H1026       H  0.70860418  0.51330765  0.40892056     0.13600
H1027       H  0.67354852  0.49907929  0.44701950     0.13600
H1028       H  0.60590353  0.48833199  0.38190322     0.13600
C1029       C  0.76674067  0.53843139  0.11320842    -0.12400
C1030       C  0.76320923  0.54078847  0.13955648    -0.14000
C1031       C  0.91143202  0.54001254  0.28468300    -0.12400
C1032       C  0.93796084  0.53774766  0.28116905    -0.14000
C1033       C  0.51791357  0.68317809  0.40202644    -0.12500
C1034       C  0.51574589  0.67636948  0.37195930     0.09700
C1035       C  0.50643807  0.64767559  0.36457775    -0.12500
C1036       C  0.49695718  0.62754132  0.38662403    -0.12500
C1037       C  0.49594613  0.63583000  0.41644393     0.09700
C1038       C  0.50834360  0.66325883  0.42380812    -0.12500
H1039       H  0.52608988  0.70439563  0.40892689     0.13600
H1040       H  0.50520926  0.64115803  0.34173168     0.13600
H1041       H  0.48912473  0.60621762  0.38009751     0.13600
H1042       H  0.50923150  0.67007706  0.44661214     0.13600
C1043       C  0.53872624  0.77736112  0.14458146    -0.12400
C1044       C  0.53387587  0.78205630  0.11882743    -0.14000
C1045       C  0.53391011  0.93728245  0.28603985    -0.12400
C1046       C  0.53785072  0.91098982  0.28946182    -0.14000
C1047       C  0.53197334  0.68733429  0.65429793    -0.12500
C1048       C  0.53648577  0.68043047  0.68419577     0.09700
C1049       C  0.54918834  0.65271987  0.69113269    -0.12500
C1050       C  0.55930919  0.63365627  0.66873141    -0.12500
C1051       C  0.55722337  0.64180334  0.63889365     0.09700
C1052       C  0.54208736  0.66830624  0.63204374    -0.12500
H1053       H  0.52148653  0.70796697  0.64793942     0.13600
H1054       H  0.55277650  0.64637148  0.71385760     0.13600
H1055       H  0.57043471  0.61345438  0.67495480     0.13600
H1056       H  0.53941933  0.67510201  0.60927734     0.13600
C1057       C  0.51869874  0.90974111  0.77782951    -0.12400
C1058       C  0.52358974  0.93558141  0.78229607    -0.14000
C1059       C  0.51268271  0.77102305  0.91461430    -0.12400
C1060       C  0.51675313  0.77630627  0.94032335    -0.14000
C1061       C  0.68246489  0.65525889  0.53645338    -0.12500
C1062       C  0.67664936  0.68587089  0.53502490     0.09700
C1063       C  0.64729892  0.69530791  0.54028657    -0.12500
C1064       C  0.62540985  0.67536947  0.54977219    -0.12500
C1065       C  0.63211155  0.64522842  0.55502966     0.09700
C1066       C  0.66045108  0.63526312  0.54575285    -0.12500
H1067       H  0.70435593  0.64669181  0.53148093     0.13600
H1068       H  0.64123869  0.71838116  0.53816439     0.13600
H1069       H  0.60345035  0.68410769  0.55394214     0.13600
H1070       H  0.66637955  0.61210578  0.54767281     0.13600
C1071       C  0.91203331  0.76828301  0.50605017    -0.12400
C1072       C  0.93827226  0.77187738  0.50979346    -0.14000
C1073       C  0.77614053  0.91370967  0.51982499    -0.12400
C1074       C  0.78103164  0.93944369  0.52484414    -0.14000
C1075       C  0.04932828  0.92624293  0.87928144    -0.12500
C1076       C  0.05471628  0.91683852  0.90848824     0.09700
C1077       C  0.04672500  0.88761374  0.91603439    -0.12500
C1078       C  0.03783015  0.86757270  0.89448536    -0.12500
C1079       C  0.03568636  0.87622202  0.86472918     0.09700
C1080       C  0.04025608  0.90621544  0.85771175    -0.12500
H1081       H  0.05319730  0.94891846  0.87267741     0.13600
H1082       H  0.04822811  0.87971814  0.93853244     0.13600
H1083       H  0.03328063  0.84508134  0.90123358     0.13600
H1084       H  0.03785019  0.91418395  0.83532795     0.13600
C1085       C  0.12231277  0.89045868  0.00095476    -0.12500
C1086       C  0.12810641  0.91960596  0.99136285     0.09700
C1087       C  0.15692003  0.93031415  0.99544881    -0.12500
C1088       C  0.17998794  0.91118352  0.00481577    -0.12500
C1089       C  0.17458405  0.88105317  0.01112286     0.09700
C1090       C  0.14505800  0.87153778  0.01039419    -0.12500
H1091       H  0.10018240  0.88159616  0.99960498     0.13600
H1092       H  0.16200842  0.95300006  0.99012792     0.13600
H1093       H  0.20221019  0.91977631  0.00599006     0.13600
H1094       H  0.13940138  0.84905671  0.01622384     0.13600
C1095       C  0.13041617  0.01073418  0.89790482    -0.12500
C1096       C  0.13526848  0.99123566  0.92173954     0.09700
C1097       C  0.16451480  0.98190906  0.92706857    -0.12500
C1098       C  0.18805600  0.99106087  0.90862509    -0.12500
C1099       C  0.18279757  0.00902959  0.88373833     0.09700
C1100       C  0.15375497  0.01935946  0.87910702    -0.12500
H1101       H  0.10808471  0.01768228  0.89261119     0.13600
H1102       H  0.16896950  0.96553829  0.94379534     0.13600
H1103       H  0.21004259  0.98234269  0.91264479     0.13600
H1104       H  0.14886285  0.03337558  0.86030688     0.13600
C1105       C  0.04675644  0.99421615  0.98874131    -0.15600
C1106       C  0.05437585  0.01277482  0.01095046    -0.30800
H1107       H  0.02308845  0.99185721  0.98551518     0.13400
H1108       H  0.07771390  0.01622325  0.01507683     0.14000
C1109       C  0.89180653  0.92479560  0.04477144    -0.12500
C1110       C  0.91978138  0.91463243  0.05439188     0.09700
C1111       C  0.92672096  0.88459777  0.04909642    -0.12500
C1112       C  0.90519796  0.86486184  0.03917734    -0.12500
C1113       C  0.87604425  0.87443201  0.03363332     0.09700
C1114       C  0.87013110  0.90498733  0.03517095    -0.12500
H1115       H  0.88578131  0.94789778  0.04689759     0.13600
H1116       H  0.94851336  0.87574744  0.05346326     0.13600
H1117       H  0.91128802  0.84180802  0.03709816     0.13600
H1118       H  0.84840005  0.91362408  0.02996911     0.13600
C1119       C  0.92529262  0.98613294  0.16973874    -0.12500
C1120       C  0.91536923  0.98370420  0.14055963     0.09700
C1121       C  0.88594835  0.99256522  0.13486613    -0.12500
C1122       C  0.86639119  0.00049722  0.15767074    -0.12500
C1123       C  0.87547942  0.00040226  0.18719510     0.09700
C1124       C  0.90557977  0.99414630  0.19280724    -0.12500
H1125       H  0.94790078  0.98079402  0.17505963     0.13600
H1126       H  0.87755300  0.99246911  0.11261094     0.13600
H1127       H  0.84386906  0.00619958  0.15197857     0.13600
H1128       H  0.91374951  0.99446980  0.21512433     0.13600
C1129       C  0.99165349  0.92486805  0.16714952    -0.12500
C1130       C  0.99407898  0.91802263  0.13709626     0.09700
C1131       C  0.01009758  0.89236178  0.12917824    -0.12500
C1132       C  0.02044248  0.87256397  0.15065081    -0.12500
C1133       C  0.01547365  0.87800606  0.18075715     0.09700
C1134       C  0.00218853  0.90510011  0.18877358    -0.12500
H1135       H  0.97982303  0.94438982  0.17411961     0.13600
H1136       H  0.01309177  0.88667007  0.10618393     0.13600
H1137       H  0.03141060  0.85245740  0.14353591     0.13600
H1138       H  0.99830897  0.91029857  0.21173770     0.13600
C1139       C  0.01364343  0.99951667  0.04715774    -0.15600
C1140       C  0.99285891  0.00125191  0.06929235    -0.30800
H1141       H  0.01775349  0.97760904  0.03827745     0.13400
H1142       H  0.98939638  0.02225322  0.08024125     0.14000
C1143       C  0.92986309  0.04590226  0.89942980    -0.12500
C1144       C  0.92086726  0.05883045  0.92638397     0.09700
C1145       C  0.89028490  0.05782511  0.93332576    -0.12500
C1146       C  0.86948607  0.04876268  0.91248960    -0.12500
C1147       C  0.87841255  0.03978083  0.88409853     0.09700
C1148       C  0.90902122  0.03715249  0.87841517    -0.12500
H1149       H  0.95312638  0.04480138  0.89351447     0.13600
H1150       H  0.88190162  0.06490122  0.95451774     0.13600
H1151       H  0.84625985  0.05007455  0.91838569     0.13600
H1152       H  0.91700219  0.02921512  0.85731995     0.13600
C1153       C  0.93428426  0.17485786  0.97591255    -0.12500
C1154       C  0.93320562  0.14752261  0.99085157     0.09700
C1155       C  0.91190388  0.14401115  0.01345201    -0.12500
C1156       C  0.89107502  0.16638697  0.01957202    -0.12500
C1157       C  0.89123109  0.19311114  0.00356125     0.09700
C1158       C  0.91387731  0.19758458  0.98252698    -0.12500
H1159       H  0.94891515  0.17776409  0.95722799     0.13600
H1160       H  0.90990016  0.12295565  0.02479202     0.13600
H1161       H  0.87407974  0.16231495  0.03608473     0.13600
H1162       H  0.91438930  0.21776666  0.96955588     0.13600
C1163       C  0.00107483  0.16801272  0.92484364    -0.12500
C1164       C  0.99678729  0.13865092  0.91590549     0.09700
C1165       C  0.00360765  0.13176810  0.88629835    -0.12500
C1166       C  0.01093343  0.15378976  0.86566983    -0.12500
C1167       C  0.01218745  0.18366015  0.87380688     0.09700
C1168       C  0.00827509  0.19030229  0.90401639    -0.12500
H1169       H  0.99757476  0.17410700  0.94760336     0.13600
H1170       H  0.00212799  0.10924542  0.87860872     0.13600
H1171       H  0.01476012  0.14724608  0.84307294     0.13600
H1172       H  0.00989518  0.21284203  0.91155081     0.13600
C1173       C  0.00998405  0.06898579  0.99751585    -0.15600
C1174       C  0.00664265  0.04487560  0.01569268    -0.30800
H1175       H  0.03130365  0.07970704  0.99607632     0.13400
H1176       H  0.98431193  0.03613602  0.01679850     0.14000
C1177       C  0.18607685  0.15649990  0.04443767    -0.12500
C1178       C  0.18124339  0.18616078  0.05236773     0.09700
C1179       C  0.15429855  0.19336816  0.06665426    -0.12500
C1180       C  0.13390446  0.17119397  0.07468362    -0.12500
C1181       C  0.13960896  0.14130227  0.06831759     0.09700
C1182       C  0.16556563  0.13452263  0.05213026    -0.12500
H1183       H  0.20620109  0.15002373  0.03295624     0.13600
H1184       H  0.14971913  0.21591228  0.07318920     0.13600
H1185       H  0.11485231  0.17730841  0.08778517     0.13600
H1186       H  0.17085938  0.11175001  0.04691280     0.13600
C1187       C  0.17119949  0.05091152  0.13407339    -0.12500
C1188       C  0.14089626  0.05604665  0.14048476     0.09700
C1189       C  0.13081250  0.04712801  0.16880138    -0.12500
C1190       C  0.15076768  0.03835135  0.19097077    -0.12500
C1191       C  0.18149128  0.03717429  0.18540155     0.09700
C1192       C  0.19110730  0.04207572  0.15613718    -0.12500
H1193       H  0.18008973  0.05484728  0.11219520     0.13600
H1194       H  0.10755584  0.04887939  0.17455382     0.13600
H1195       H  0.14207840  0.03355194  0.21278108     0.13600
H1196       H  0.21429077  0.04021221  0.15025649     0.13600
C1197       C  0.05753532  0.13447475  0.16838797    -0.12500
C1198       C  0.06752700  0.14042750  0.13936914     0.09700
C1199       C  0.06472795  0.16974443  0.12905718    -0.12500
C1200       C  0.05591408  0.19276085  0.14832075    -0.12500
C1201       C  0.04893934  0.18688514  0.17823593     0.09700
C1202       C  0.04874209  0.15716256  0.18743888    -0.12500
H1203       H  0.05755293  0.11209129  0.17697813     0.13600
H1204       H  0.07029294  0.17517191  0.10649131     0.13600
H1205       H  0.05545016  0.21520695  0.13995520     0.13600
H1206       H  0.04239661  0.15117014  0.20972263     0.13600
C1207       C  0.04703097  0.04295570  0.05834008    -0.15600
C1208       C  0.06300647  0.06864567  0.05701082    -0.30800
H1209       H  0.04705257  0.03168399  0.07957778     0.13400
H1210       H  0.06260415  0.08170223  0.03691382     0.14000
loop_ 
_geom_bond_atom_site_label_1 
_geom_bond_atom_site_label_2 
_geom_bond_distance 
_geom_bond_site_symmetry_2 
_ccdc_geom_bond_type 
C1            C2   1.532       .  S
C1            C7   1.538       .  S
C1            C5   1.549       .  S
C1         C1188   1.561       .  S
C2            H9   1.084       .  S
C2            C3   1.367       .  D
C3            C4   1.566       .  S
C3         C1198   1.517       .  S
C4            C8   1.561       .  S
C4            C6   1.582       .  S
C4           H10   1.110       .  S
C5           H11   1.085       .  S
C5            C6   1.383       .  D
C6         C1208   1.540       .  S
C7           H12   1.084       .  S
C7            C8   1.362       .  D
C8         C1181   1.508       .  S
C13          C14   1.535       .  S
C13          C19   1.535       .  S
C13          C17   1.546       .  S
C13        C1144   1.557       .  S
C14          H21   1.085       .  S
C14          C15   1.365       .  D
C15          C16   1.559       .  S
C15        C1164   1.514       .  S
C16          C20   1.560       .  S
C16          C18   1.579       .  S
C16          H22   1.110       .  S
C17          H23   1.085       .  S
C17          C18   1.383       .  D
C18        C1173   1.536   1_655  S
C19          H24   1.083       .  S
C19          C20   1.361       .  D
C20        C1154   1.497       .  S
C25          C26   1.534       .  S
C25          C31   1.535       .  S
C25          C29   1.548       .  S
C25        C1110   1.556       .  S
C26          H33   1.085       .  S
C26          C27   1.364       .  D
C27          C28   1.560       .  S
C27        C1120   1.515       .  S
C28          C32   1.559       .  S
C28          C30   1.570       .  S
C28          H34   1.110       .  S
C29          H35   1.086       .  S
C29          C30   1.380       .  D
C30        C1140   1.523   1_565  S
C31          H36   1.082       .  S
C31          C32   1.366       .  D
C32        C1130   1.501       .  S
C37          C38   1.532       .  S
C37          C43   1.531       .  S
C37          C41   1.530       .  S
C37        C1076   1.548       .  S
C38          H45   1.084       .  S
C38          C39   1.368       .  D
C39          C40   1.568       .  S
C39        C1086   1.515       .  S
C40          C44   1.567       .  S
C40          C42   1.584       .  S
C40          H46   1.110       .  S
C41          H47   1.086       .  S
C41          C42   1.377       .  D
C42        C1105   1.532       .  S
C43          H48   1.086       .  S
C43          C44   1.364       .  D
C44        C1096   1.501       .  S
C49        C1106   1.574       .  S
C49        C1139   1.577   1_545  S
C49        C1174   1.576       .  S
C49        C1207   1.579       .  S
N50          N51   1.322       .  A
N50          C54   1.352       .  A
N50         Cu58   2.106       .  S
N51          C52   1.342       .  A
N51         Cu57   2.047       .  S
C52          C53   1.374       .  A
C52          H55   1.082       .  S
C53          C54   1.390       .  A
C53        C1073   1.445       .  S
C54          H56   1.082       .  S
Cu57         N60   2.047       .  S
Cu58         N68   2.108       .  S
Cu59         N61   2.116       .  S
Cu59         N67   2.118       .  S
N60          N61   1.322       .  A
N60          C64   1.342       .  A
N61          C62   1.354       .  A
C62          C63   1.392       .  A
C62          H65   1.082       .  S
C63          C64   1.374       .  A
C63        C1071   1.447       .  S
C64          H66   1.082       .  S
N67          N68   1.324       .  A
N67          C71   1.353       .  A
N68          C69   1.350       .  A
C69          C70   1.394       .  A
C69          H72   1.081       .  S
C70          C71   1.397       .  A
C70        C1062   1.509       .  S
C71          H73   1.081       .  S
N74          N75   1.322       .  A
N74          C78   1.352       .  A
N74         Cu82   2.103       .  S
N75          C76   1.341       .  A
N75         Cu81   2.045       .  S
C76          C77   1.372       .  A
C76          H79   1.082       .  S
C77          C78   1.389       .  A
C77        C1059   1.441       .  S
C78          H80   1.082       .  S
Cu81         N84   2.047       .  S
Cu82         N92   2.105       .  S
Cu83         N85   2.103       .  S
Cu83         N91   2.105       .  S
N84          N85   1.321       .  A
N84          C88   1.342       .  A
N85          C86   1.352       .  A
C86          C87   1.390       .  A
C86          H89   1.082       .  S
C87          C88   1.374       .  A
C87        C1057   1.445       .  S
C88          H90   1.082       .  S
N91          N92   1.324       .  A
N91          C95   1.349       .  A
N92          C93   1.351       .  A
C93          C94   1.392       .  A
C93          H96   1.081       .  S
C94          C95   1.392       .  A
C94        C1048   1.500       .  S
C95          H97   1.081       .  S
N98          N99   1.323       .  A
N98         C102   1.351       .  A
N98        Cu106   2.102       .  S
N99         C100   1.342       .  A
N99        Cu105   2.047       .  S
C100        C101   1.373       .  A
C100        H103   1.082       .  S
C101        C102   1.388       .  A
C101       C1043   1.441       .  S
C102        H104   1.082       .  S
Cu105       N108   2.046       .  S
Cu106       N116   2.103       .  S
Cu107       N109   2.108       .  S
Cu107       N115   2.110       .  S
N108        N109   1.322       .  A
N108        C112   1.342       .  A
N109        C110   1.353       .  A
C110        C111   1.390       .  A
C110        H113   1.082       .  S
C111        C112   1.374       .  A
C111       C1046   1.445       .  S
C112        H114   1.082       .  S
N115        N116   1.324       .  A
N115        C119   1.348       .  A
N116        C117   1.353       .  A
C117        C118   1.393       .  A
C117        H120   1.081       .  S
C118        C119   1.394       .  A
C118       C1034   1.504       .  S
C119        H121   1.081       .  S
N122        N123   1.322       .  A
N122        C126   1.352       .  A
N122       Cu130   2.105       .  S
N123        C124   1.341       .  A
N123       Cu129   2.046       .  S
C124        C125   1.373       .  A
C124        H127   1.082       .  S
C125        C126   1.390       .  A
C125       C1030   1.443       .  S
C126        H128   1.082       .  S
Cu129       N132   2.045       .  S
Cu130       N140   2.107       .  S
Cu131       N133   2.113       .  S
Cu131       N139   2.116       .  S
N132        N133   1.322       .  A
N132        C136   1.342       .  A
N133        C134   1.354       .  A
C134        C135   1.392       .  A
C134        H137   1.082       .  S
C135        C136   1.373       .  A
C135       C1031   1.446       .  S
C136        H138   1.082       .  S
N139        N140   1.325       .  A
N139        C143   1.350       .  A
N140        C141   1.352       .  A
C141        C142   1.393       .  A
C141        H144   1.081       .  S
C142        C143   1.396       .  A
C142       C1020   1.506       .  S
C143        H145   1.081       .  S
O146       Cu154   2.045   1_556  S
O146        C156   1.283       .  A
O147       Cu154   2.044       .  S
O147        C157   1.283       .  A
O148       Cu154   1.990       .  S
O148        C158   1.271       .  A
O149       Cu154   1.993       .  S
O149        C159   1.272       .  A
O150       Cu155   2.054       .  S
O150        C159   1.284       .  A
O151       Cu155   2.053       .  S
O151        C158   1.284       .  A
O152       Cu155   1.980       .  S
O152        C157   1.270       .  A
O153       Cu155   1.984   1_556  S
O153        C156   1.271       .  A
Cu154      Cu155   2.377       .  S
C156       C1060   1.439       .  S
C157       C1044   1.438       .  S
C158       C1016   1.445       .  S
C159       C1017   1.446       .  S
O160       Cu168   2.043       .  S
O160        C170   1.282       .  A
O161       Cu168   2.041       .  S
O161        C171   1.282       .  A
O162       Cu168   1.992       .  S
O162        C172   1.272       .  A
O163       Cu168   1.983   1_556  S
O163        C173   1.271       .  A
O164       Cu169   2.039   1_556  S
O164        C173   1.282       .  A
O165       Cu169   2.042       .  S
O165        C172   1.282       .  A
O166       Cu169   1.978       .  S
O166        C171   1.270       .  A
O167       Cu169   1.980       .  S
O167        C170   1.271       .  A
Cu168      Cu169   2.378       .  S
C170       C1011   1.437       .  S
C171       C1014   1.436       .  S
C172       C1029   1.441       .  S
C173       C1010   1.436       .  S
N174        N175   1.322   1_554  A
N174        C178   1.351       .  A
N174       Cu182   2.098       .  S
N175        C176   1.342       .  A
N175       Cu181   2.044       .  S
C176        C177   1.373   1_556  A
C176        H179   1.082       .  S
C177        C178   1.388       .  A
C177       C1012   1.440       .  S
C178        H180   1.082       .  S
Cu181       N184   2.044       .  S
Cu182       N192   2.100       .  S
Cu183       N185   2.117       .  S
Cu183       N191   2.118       .  S
N184        N185   1.322   1_556  A
N184        C188   1.342       .  A
N185        C186   1.354       .  A
C186        C187   1.392       .  A
C186        H189   1.082       .  S
C187        C188   1.373   1_554  A
C187       C1015   1.447       .  S
C188        H190   1.082       .  S
N191        N192   1.324       .  A
N191        C195   1.352       .  A
N192        C193   1.349       .  A
C193        C194   1.393       .  A
C193        H196   1.081       .  S
C194        C195   1.396       .  A
C194       C1113   1.506       .  S
C195        H197   1.081       .  S
N198        N199   1.322       .  A
N198        C202   1.350       .  A
N198       Cu206   2.095       .  S
N199        C200   1.342       .  A
N199       Cu205   2.046       .  S
C200        C201   1.373       .  A
C200        H203   1.082       .  S
C201        C202   1.387       .  A
C201       C1009   1.439       .  S
C202        H204   1.082       .  S
Cu205       N208   2.046       .  S
Cu206       N216   2.096       .  S
Cu207       N209   2.103       .  S
Cu207       N215   2.106       .  S
N208        N209   1.321       .  A
N208        C212   1.341       .  A
N209        C210   1.353       .  A
C210        C211   1.390       .  A
C210        H213   1.082       .  S
C211        C212   1.373       .  A
C211       C1007   1.443       .  S
C212        H214   1.082       .  S
N215        N216   1.324       .  A
N215        C219   1.347       .  A
N216        C217   1.351       .  A
C217        C218   1.391       .  A
C217        H220   1.081       .  S
C218        C219   1.392       .  A
C218        C998   1.498       .  S
C219        H221   1.081       .  S
N222        N223   1.322       .  A
N222        C226   1.352       .  A
N222       Cu230   2.105       .  S
N223        C224   1.342       .  A
N223       Cu229   2.050       .  S
C224        C225   1.374       .  A
C224        H227   1.082       .  S
C225        C226   1.390       .  A
C225        C995   1.444       .  S
C226        H228   1.082       .  S
Cu229       N232   2.051       .  S
Cu230       N240   2.107       .  S
Cu231       N233   2.110       .  S
Cu231       N239   2.112       .  S
N232        N233   1.322       .  A
N232        C236   1.343       .  A
N233        C234   1.352       .  A
C234        C235   1.390       .  A
C234        H237   1.082       .  S
C235        C236   1.375       .  A
C235        C993   1.447       .  S
C236        H238   1.082       .  S
N239        N240   1.324       .  A
N239        C243   1.351       .  A
N240        C241   1.351       .  A
C241        C242   1.394       .  A
C241        H244   1.081       .  S
C242        C243   1.395       .  A
C242        C984   1.506       .  S
C243        H245   1.081       .  S
O246       Cu254   2.048   1_655  S
O246        C256   1.283       .  A
O247       Cu254   2.048       .  S
O247        C257   1.283       .  A
O248       Cu254   1.984       .  S
O248        C258   1.271       .  A
O249       Cu254   1.981       .  S
O249        C259   1.271       .  A
O250       Cu255   2.039       .  S
O250        C259   1.282       .  A
O251       Cu255   2.040       .  S
O251        C258   1.282       .  A
O252       Cu255   1.996       .  S
O252        C257   1.273       .  A
O253       Cu255   1.995   1_655  S
O253        C256   1.272       .  A
Cu254      Cu255   2.377       .  S
C256       C1072   1.445       .  S
C257        C994   1.445       .  S
C258        C980   1.437       .  S
C259        C981   1.436       .  S
O260       Cu268   1.994   1_655  S
O260        C270   1.273       .  A
O261       Cu268   1.990       .  S
O261        C271   1.272       .  A
O262       Cu268   2.040       .  S
O262        C272   1.282       .  A
O263       Cu268   2.040       .  S
O263        C273   1.282       .  A
O264       Cu269   1.988       .  S
O264        C273   1.272       .  A
O265       Cu269   1.991       .  S
O265        C272   1.272       .  A
O266       Cu269   2.038       .  S
O266        C271   1.281       .  A
O267       Cu269   2.039   1_655  S
O267        C270   1.282       .  A
Cu268      Cu269   2.378       .  S
C270       C1008   1.441       .  S
C271        C973   1.438       .  S
C272        C975   1.440       .  S
C273        C977   1.439       .  S
N274        N275   1.322   1_455  A
N274        C278   1.351       .  A
N274       Cu282   2.098       .  S
N275        C276   1.342       .  A
N275       Cu281   2.047       .  S
C276        C277   1.374   1_655  A
C276        H279   1.082       .  S
C277        C278   1.388       .  A
C277        C978   1.441       .  S
C278        H280   1.082       .  S
Cu281       N284   2.045       .  S
Cu282       N292   2.100       .  S
Cu283       N285   2.096       .  S
Cu283       N291   2.098       .  S
N284        N285   1.322   1_655  A
N284        C288   1.341       .  A
N285        C286   1.350       .  A
C286        C287   1.387       .  A
C286        H289   1.082       .  S
C287        C288   1.372   1_455  A
C287        C982   1.439       .  S
C288        H290   1.082       .  S
N291        N292   1.323       .  A
N291        C295   1.350       .  A
N292        C293   1.348       .  A
C293        C294   1.393       .  A
C293        H296   1.081       .  S
C294        C295   1.393       .  A
C294       C1079   1.501       .  S
C295        H297   1.081       .  S
N298        N299   1.323       .  A
N298        C302   1.350       .  A
N298       Cu306   2.101       .  S
N299        C300   1.342       .  A
N299       Cu305   2.046       .  S
C300        C301   1.373       .  A
C300        H303   1.082       .  S
C301        C302   1.387       .  A
C301        C974   1.441       .  S
C302        H304   1.082       .  S
Cu305       N308   2.046       .  S
Cu306       N316   2.102       .  S
Cu307       N309   2.107       .  S
Cu307       N315   2.109       .  S
N308        N309   1.322       .  A
N308        C312   1.343       .  A
N309        C310   1.352       .  A
C310        C311   1.390       .  A
C310        H313   1.082       .  S
C311        C312   1.374       .  A
C311        C971   1.444       .  S
C312        H314   1.082       .  S
N315        N316   1.324       .  A
N315        C319   1.350       .  A
N316        C317   1.351       .  A
C317        C318   1.391       .  A
C317        H320   1.082       .  S
C318        C319   1.393       .  A
C318        C962   1.501       .  S
C319        H321   1.082       .  S
N322        N323   1.321       .  A
N322        C326   1.353       .  A
N322       Cu330   2.104       .  S
N323        C324   1.342       .  A
N323       Cu329   2.045       .  S
C324        C325   1.374       .  A
C324        H327   1.082       .  S
C325        C326   1.391       .  A
C325        C957   1.444       .  S
C326        H328   1.082       .  S
Cu329       N332   2.043       .  S
Cu330       N340   2.107       .  S
Cu331       N333   2.107       .  S
Cu331       N339   2.109       .  S
N332        N333   1.322       .  A
N332        C336   1.340       .  A
N333        C334   1.353       .  A
C334        C335   1.391       .  A
C334        H337   1.082       .  S
C335        C336   1.372       .  A
C335        C959   1.443       .  S
C336        H338   1.082       .  S
N339        N340   1.325       .  A
N339        C343   1.351       .  A
N340        C341   1.349       .  A
C341        C342   1.392       .  A
C341        H344   1.081       .  S
C342        C343   1.393       .  A
C342        C948   1.502       .  S
C343        H345   1.081       .  S
O346       Cu354   1.989   1_565  S
O346        C356   1.272       .  A
O347       Cu354   1.988       .  S
O347        C357   1.271       .  A
O348       Cu354   2.047       .  S
O348        C358   1.283       .  A
O349       Cu354   2.050       .  S
O349        C359   1.283       .  A
O350       Cu355   1.996       .  S
O350        C359   1.272       .  A
O351       Cu355   1.991       .  S
O351        C358   1.272       .  A
O352       Cu355   2.047       .  S
O352        C357   1.283       .  A
O353       Cu355   2.048   1_565  S
O353        C356   1.283       .  A
Cu354      Cu355   2.376       .  S
C356       C1074   1.443       .  S
C357        C958   1.442       .  S
C358        C943   1.443       .  S
C359        C945   1.446       .  S
O360       Cu368   1.987       .  S
O360        C370   1.271       .  A
O361       Cu368   1.989   1_565  S
O361        C371   1.272       .  A
O362       Cu368   2.047       .  S
O362        C372   1.283       .  A
O363       Cu368   2.046       .  S
O363        C373   1.283       .  A
O364       Cu369   1.988       .  S
O364        C373   1.271       .  A
O365       Cu369   1.989       .  S
O365        C372   1.271       .  A
O366       Cu369   2.049   1_565  S
O366        C371   1.283       .  A
O367       Cu369   2.049       .  S
O367        C370   1.283       .  A
Cu368      Cu369   2.377       .  S
C370        C938   1.442       .  S
C371       C1058   1.443       .  S
C372        C942   1.442       .  S
C373        C939   1.441       .  S
N374        N375   1.322   1_545  A
N374        C378   1.353       .  A
N374       Cu382   2.105       .  S
N375        C376   1.341       .  A
N375       Cu381   2.046       .  S
C376        C377   1.373   1_565  A
C376        H379   1.082       .  S
C377        C378   1.390       .  A
C377        C940   1.443       .  S
C378        H380   1.082       .  S
Cu381       N384   2.046       .  S
Cu382       N392   2.107       .  S
Cu383       N385   2.118       .  S
Cu383       N391   2.120       .  S
N384        N385   1.322   1_565  A
N384        C388   1.342       .  A
N385        C386   1.354       .  A
C386        C387   1.393       .  A
C386        H389   1.082       .  S
C387        C388   1.374   1_545  A
C387        C946   1.448       .  S
C388        H390   1.082       .  S
N391        N392   1.325       .  A
N391        C395   1.353       .  A
N392        C393   1.350       .  A
C393        C394   1.393       .  A
C393        H396   1.081       .  S
C394        C395   1.395       .  A
C394       C1147   1.507       .  S
C395        H397   1.081       .  S
N398        N399   1.323       .  A
N398        C402   1.353       .  A
N398       Cu406   2.110       .  S
N399        C400   1.342       .  A
N399       Cu405   2.048       .  S
C400        C401   1.373       .  A
C400        H403   1.082       .  S
C401        C402   1.390       .  A
C401        C937   1.445       .  S
C402        H404   1.082       .  S
Cu405       N408   2.047       .  S
Cu406       N416   2.111       .  S
Cu407       N409   2.105       .  S
Cu407       N415   2.107       .  S
N408        N409   1.322       .  A
N408        C412   1.342       .  A
N409        C410   1.352       .  A
C410        C411   1.389       .  A
C410        H413   1.082       .  S
C411        C412   1.374       .  A
C411        C935   1.444       .  S
C412        H414   1.082       .  S
N415        N416   1.324       .  A
N415        C419   1.349       .  A
N416        C417   1.353       .  A
C417        C418   1.396       .  A
C417        H420   1.081       .  S
C418        C419   1.394       .  A
C418        C926   1.507       .  S
C419        H421   1.081       .  S
O422       Cu430   2.045   1_556  S
O422        C432   1.282       .  A
O423       Cu430   2.042       .  S
O423        C433   1.282       .  A
O424       Cu430   1.991       .  S
O424        C434   1.272       .  A
O425       Cu430   1.993       .  S
O425        C435   1.272       .  A
O426       Cu431   2.046       .  S
O426        C435   1.283       .  A
O427       Cu431   2.047       .  S
O427        C434   1.283       .  A
O428       Cu431   1.990       .  S
O428        C433   1.272       .  A
O429       Cu431   1.990   1_556  S
O429        C432   1.272       .  A
Cu430      Cu431   2.377       .  S
C432        C972   1.441       .  S
C433        C920   1.441       .  S
C434        C924   1.443       .  S
C435        C921   1.443       .  S
N436        N437   1.323       .  A
N436        C440   1.354       .  A
N436       Cu444   2.118       .  S
N437        C438   1.343       .  A
N437       Cu443   2.048       .  S
C438        C439   1.374       .  A
C438        H441   1.082       .  S
C439        C440   1.392       .  A
C439       C1018   1.448       .  S
C440        H442   1.082       .  S
Cu443       N446   2.048       .  S
Cu444       N454   2.119       .  S
Cu445       N447   2.109       .  S
Cu445       N453   2.112       .  S
N446        N447   1.322       .  A
N446        C450   1.342       .  A
N447        C448   1.353       .  A
C448        C449   1.391       .  A
C448        H451   1.082       .  S
C449        C450   1.374       .  A
C449        C923   1.446       .  S
C450        H452   1.082       .  S
N453        N454   1.325       .  A
N453        C457   1.349       .  A
N454        C455   1.355       .  A
C455        C456   1.396       .  A
C455        H458   1.081       .  S
C456        C457   1.395       .  A
C456       C1089   1.509       .  S
C457        H459   1.081       .  S
O460       Cu468   1.993       .  S
O460        C470   1.272       .  A
O461       Cu468   1.990   1_655  S
O461        C471   1.272       .  A
O462       Cu468   2.046       .  S
O462        C472   1.283       .  A
O463       Cu468   2.044       .  S
O463        C473   1.283       .  A
O464       Cu469   1.976       .  S
O464        C473   1.270       .  A
O465       Cu469   1.979       .  S
O465        C472   1.270       .  A
O466       Cu469   2.049   1_655  S
O466        C471   1.283       .  A
O467       Cu469   2.050       .  S
O467        C470   1.284       .  A
Cu468      Cu469   2.377       .  S
C470        C913   1.445       .  S
C471       C1032   1.443       .  S
C472        C916   1.438       .  S
C473        C918   1.436       .  S
N474        N475   1.322       .  A
N474        C478   1.350       .  A
N474       Cu482   2.095       .  S
N475        C476   1.342       .  A
N475       Cu481   2.047       .  S
C476        C477   1.374       .  A
C476        H479   1.082       .  S
C477        C478   1.387       .  A
C477        C979   1.440       .  S
C478        H480   1.082       .  S
Cu481       N484   2.045       .  S
Cu482       N492   2.096       .  S
Cu483       N485   2.094       .  S
Cu483       N491   2.096       .  S
N484        N485   1.322       .  A
N484        C488   1.341       .  A
N485        C486   1.351       .  A
C486        C487   1.387       .  A
C486        H489   1.082       .  S
C487        C488   1.372       .  A
C487        C917   1.439       .  S
C488        H490   1.082       .  S
N491        N492   1.323       .  A
N491        C495   1.348       .  A
N492        C493   1.350       .  A
C493        C494   1.390       .  A
C493        H496   1.081       .  S
C494        C495   1.391       .  A
C494       C1133   1.495       .  S
C495        H497   1.081       .  S
N498        N499   1.322       .  A
N498        C502   1.352       .  A
N498       Cu506   2.102       .  S
N499        C500   1.341       .  A
N499       Cu505   2.046       .  S
C500        C501   1.373       .  A
C500        H503   1.082       .  S
C501        C502   1.389       .  A
C501        C919   1.442       .  S
C502        H504   1.082       .  S
Cu505       N508   2.045       .  S
Cu506       N516   2.104       .  S
Cu507       N509   2.116       .  S
Cu507       N515   2.119       .  S
N508        N509   1.322       .  A
N508        C512   1.341       .  A
N509        C510   1.355       .  A
C510        C511   1.393       .  A
C510        H513   1.082       .  S
C511        C512   1.373       .  A
C511        C914   1.447       .  S
C512        H514   1.082       .  S
N515        N516   1.325       .  A
N515        C519   1.352       .  A
N516        C517   1.351       .  A
C517        C518   1.391       .  A
C517        H520   1.082       .  S
C518        C519   1.395       .  A
C518        C904   1.503       .  S
C519        H521   1.081       .  S
O522       Cu530   1.985   1_556  S
O522        C532   1.271       .  A
O523       Cu530   1.983       .  S
O523        C533   1.271       .  A
O524       Cu530   2.045       .  S
O524        C534   1.283       .  A
O525       Cu530   2.046       .  S
O525        C535   1.283       .  A
O526       Cu531   2.002       .  S
O526        C535   1.273       .  A
O527       Cu531   1.996       .  S
O527        C534   1.273       .  A
O528       Cu531   2.047       .  S
O528        C533   1.283       .  A
O529       Cu531   2.049   1_556  S
O529        C532   1.283       .  A
Cu530      Cu531   2.376       .  S
C532        C936   1.441       .  S
C533        C898   1.440       .  S
C534        C901   1.444       .  S
C535        C899   1.447       .  S
N536        N537   1.322       .  A
N536        C540   1.352       .  A
N536       Cu544   2.103       .  S
N537        C538   1.339       .  A
N537       Cu543   2.041       .  S
C538        C539   1.370       .  A
C538        H541   1.082       .  S
C539        C540   1.390       .  A
C539       C1013   1.438       .  S
C540        H542   1.082       .  S
Cu543       N546   2.042       .  S
Cu544       N554   2.105       .  S
Cu545       N547   2.105       .  S
Cu545       N553   2.109       .  S
N546        N547   1.320       .  A
N546        C550   1.342       .  A
N547        C548   1.353       .  A
C548        C549   1.391       .  A
C548        H551   1.082       .  S
C549        C550   1.374       .  A
C549        C902   1.445       .  S
C550        H552   1.082       .  S
N553        N554   1.326       .  A
N553        C557   1.349       .  A
N554        C555   1.352       .  A
C555        C556   1.390       .  A
C555        H558   1.082       .  S
C556        C557   1.389       .  A
C556       C1157   1.494       .  S
C557        H559   1.082       .  S
O560       Cu568   1.992   1_565  S
O560        C570   1.272       .  A
O561       Cu568   1.996       .  S
O561        C571   1.273       .  A
O562       Cu568   2.044       .  S
O562        C572   1.282       .  A
O563       Cu568   2.043       .  S
O563        C573   1.282       .  A
O564       Cu569   1.991       .  S
O564        C573   1.272       .  A
O565       Cu569   1.993       .  S
O565        C572   1.272       .  A
O566       Cu569   2.046       .  S
O566        C571   1.283       .  A
O567       Cu569   2.045   1_565  S
O567        C570   1.283       .  A
Cu568      Cu569   2.377       .  S
C570       C1045   1.442       .  S
C571        C892   1.444       .  S
C572        C893   1.442       .  S
C573        C895   1.442       .  S
N574        N575   1.323       .  A
N574        C578   1.352       .  A
N574       Cu582   2.109       .  S
N575        C576   1.343       .  A
N575       Cu581   2.048       .  S
C576        C577   1.374       .  A
C576        H579   1.082       .  S
C577        C578   1.390       .  A
C577        C944   1.445       .  S
C578        H580   1.082       .  S
Cu581       N584   2.048       .  S
Cu582       N592   2.110       .  S
Cu583       N585   2.107       .  S
Cu583       N591   2.109       .  S
N584        N585   1.322       .  A
N584        C588   1.342       .  A
N585        C586   1.352       .  A
C586        C587   1.390       .  A
C586        H589   1.082       .  S
C587        C588   1.374       .  A
C587        C896   1.444       .  S
C588        H590   1.082       .  S
N591        N592   1.324       .  A
N591        C595   1.348       .  A
N592        C593   1.354       .  A
C593        C594   1.394       .  A
C593        H596   1.081       .  S
C594        C595   1.394       .  A
C594       C1123   1.506       .  S
C595        H597   1.081       .  S
N598        N599   1.322       .  A
N598        C602   1.352       .  A
N598       Cu606   2.104       .  S
N599        C600   1.342       .  A
N599       Cu605   2.046       .  S
C600        C601   1.373       .  A
C600        H603   1.082       .  S
C601        C602   1.389       .  A
C601        C897   1.443       .  S
C602        H604   1.082       .  S
Cu605       N608   2.045       .  S
Cu606       N616   2.106       .  S
Cu607       N609   2.109       .  S
Cu607       N615   2.111       .  S
N608        N609   1.321       .  A
N608        C612   1.342       .  A
N609        C610   1.354       .  A
C610        C611   1.392       .  A
C610        H613   1.082       .  S
C611        C612   1.374       .  A
C611        C891   1.446       .  S
C612        H614   1.082       .  S
N615        N616   1.325       .  A
N615        C619   1.349       .  A
N616        C617   1.353       .  A
C617        C618   1.391       .  A
C617        H620   1.082       .  S
C618        C619   1.391       .  A
C618        C882   1.498       .  S
C619        H621   1.082       .  S
O622       Cu630   2.048   1_565  S
O622        C632   1.283       .  A
O623       Cu630   2.050       .  S
O623        C633   1.283       .  A
O624       Cu630   1.996       .  S
O624        C634   1.272       .  A
O625       Cu630   1.988       .  S
O625        C635   1.271       .  A
O626       Cu631   2.050       .  S
O626        C635   1.283       .  A
O627       Cu631   2.054       .  S
O627        C634   1.284       .  A
O628       Cu631   1.990       .  S
O628        C633   1.272       .  A
O629       Cu631   1.987   1_565  S
O629        C632   1.271       .  A
Cu630      Cu631   2.376       .  S
C632        C996   1.442       .  S
C633        C876   1.444       .  S
C634        C877   1.448       .  S
C635        C879   1.442       .  S
N636        N637   1.321       .  A
N636        C640   1.353       .  A
N636       Cu644   2.105       .  S
N637        C638   1.342       .  A
N637       Cu643   2.046       .  S
C638        C639   1.374       .  A
C638        H641   1.082       .  S
C639        C640   1.391       .  A
C639        C880   1.445       .  S
C640        H642   1.082       .  S
Cu643       N646   2.045       .  S
Cu644       N654   2.107       .  S
Cu645       N647   2.113       .  S
Cu645       N653   2.114       .  S
N646        N647   1.323       .  A
N646        C650   1.342       .  A
N647        C648   1.353       .  A
C648        C649   1.391       .  A
C648        H651   1.082       .  S
C649        C650   1.373       .  A
C649        C941   1.445       .  S
C650        H652   1.082       .  S
N653        N654   1.325       .  A
N653        C657   1.354       .  A
N654        C655   1.349       .  A
C655        C656   1.390       .  A
C655        H658   1.082       .  S
C656        C657   1.393       .  A
C656       C1099   1.499       .  S
C657        H659   1.082       .  S
O660       Cu668   2.046   1_655  S
O660        C670   1.283       .  A
O661       Cu668   2.046       .  S
O661        C671   1.283       .  A
O662       Cu668   1.998       .  S
O662        C672   1.273       .  A
O663       Cu668   1.997       .  S
O663        C673   1.273       .  A
O664       Cu669   2.049       .  S
O664        C673   1.283       .  A
O665       Cu669   2.052       .  S
O665        C672   1.284       .  A
O666       Cu669   1.987       .  S
O666        C671   1.271       .  A
O667       Cu669   1.986   1_655  S
O667        C670   1.271       .  A
Cu668      Cu669   2.376       .  S
C670        C960   1.441       .  S
C671        C869   1.441       .  S
C672        C873   1.448       .  S
C673        C872   1.446       .  S
N674        N675   1.322       .  A
N674        C678   1.352       .  A
N674       Cu682   2.102       .  S
N675        C676   1.342       .  A
N675       Cu681   2.047       .  S
C676        C677   1.373       .  A
C676        H679   1.082       .  S
C677        C678   1.389       .  A
C677        C976   1.442       .  S
C678        H680   1.082       .  S
Cu681       N684   2.048       .  S
Cu682       N692   2.103       .  S
Cu683       N685   2.121       .  S
Cu683       N691   2.123       .  S
N684        N685   1.322       .  A
N684        C688   1.343       .  A
N685        C686   1.355       .  A
C686        C687   1.393       .  A
C686        H689   1.082       .  S
C687        C688   1.375       .  A
C687        C874   1.450       .  S
C688        H690   1.082       .  S
N691        N692   1.324       .  A
N691        C695   1.351       .  A
N692        C693   1.352       .  A
C693        C694   1.393       .  A
C693        H696   1.081       .  S
C694        C695   1.398       .  A
C694       C1167   1.509       .  S
C695        H697   1.081       .  S
N698        N699   1.322       .  A
N698        C702   1.354       .  A
N698       Cu706   2.113       .  S
N699        C700   1.342       .  A
N699       Cu705   2.047       .  S
C700        C701   1.374       .  A
C700        H703   1.082       .  S
C701        C702   1.392       .  A
C701        C875   1.446       .  S
C702        H704   1.082       .  S
Cu705       N708   2.047       .  S
Cu706       N716   2.115       .  S
Cu707       N709   2.108       .  S
Cu707       N715   2.109       .  S
N708        N709   1.323       .  A
N708        C712   1.342       .  A
N709        C710   1.352       .  A
C710        C711   1.389       .  A
C710        H713   1.082       .  S
C711        C712   1.373       .  A
C711        C870   1.444       .  S
C712        H714   1.082       .  S
N715        N716   1.325       .  A
N715        C719   1.354       .  A
N716        C717   1.349       .  A
C717        C718   1.395       .  A
C717        H720   1.081       .  S
C718        C719   1.394       .  A
C718        C860   1.507       .  S
C719        H721   1.081       .  S
N722        N723   1.323   1_455  A
N722        C726   1.352       .  A
N722       Cu730   2.109       .  S
N723        C724   1.341       .  A
N723       Cu729   2.046       .  S
C724        C725   1.372   1_655  A
C724        H727   1.082       .  S
C725        C726   1.389       .  A
C725        C915   1.441       .  S
C726        H728   1.082       .  S
Cu729       N732   2.049       .  S
Cu730       N740   2.111       .  S
Cu731       N733   2.110       .  S
Cu731       N739   2.112       .  S
N732        N733   1.321   1_655  A
N732        C736   1.343       .  A
N733        C734   1.353       .  A
C734        C735   1.391       .  A
C734        H737   1.082       .  S
C735        C736   1.376   1_455  A
C735        C871   1.448       .  S
C736        H738   1.082       .  S
N739        N740   1.324       .  A
N739        C743   1.348       .  A
N740        C741   1.355       .  A
C741        C742   1.395       .  A
C741        H744   1.081       .  S
C742        C743   1.395       .  A
C742       C1201   1.508       .  S
C743        H745   1.081       .  S
N746        N747   1.321   1_545  A
N746        C750   1.352       .  A
N746       Cu754   2.105       .  S
N747        C748   1.342       .  A
N747       Cu753   2.046       .  S
C748        C749   1.374   1_565  A
C748        H751   1.082       .  S
C749        C750   1.390       .  A
C749        C894   1.444       .  S
C750        H752   1.082       .  S
Cu753       N756   2.045       .  S
Cu754       N764   2.107       .  S
Cu755       N757   2.128       .  S
Cu755       N763   2.130       .  S
N756        N757   1.323   1_565  A
N756        C760   1.342       .  A
N757        C758   1.356       .  A
C758        C759   1.395       .  A
C758        H761   1.082       .  S
C759        C760   1.372   1_545  A
C759        C878   1.450       .  S
C760        H762   1.082       .  S
N763        N764   1.325       .  A
N763        C767   1.355       .  A
N764        C765   1.350       .  A
C765        C766   1.393       .  A
C765        H768   1.081       .  S
C766        C767   1.399       .  A
C766       C1191   1.511       .  S
C767        H769   1.081       .  S
N770        N771   1.322       .  A
N770        C774   1.354       .  A
N770       Cu778   2.115       .  S
N771        C772   1.341       .  A
N771       Cu777   2.042       .  S
C772        C773   1.372       .  A
C772        H775   1.082   1_554  S
C773        C774   1.392       .  A
C773        C922   1.445       .  S
C774        H776   1.082       .  S
Cu777       N780   2.041       .  S
Cu778       N788   2.117       .  S
Cu779       N781   2.119       .  S
Cu779       N787   2.122       .  S
N780        N781   1.321       .  A
N780        C784   1.341       .  A
N781        C782   1.355       .  A
C782        C783   1.394       .  A
C782        H785   1.082       .  S
C783        C784   1.373       .  A
C783        C900   1.448       .  S
C784        H786   1.082   1_554  S
N787        N788   1.327       .  A
N787        C791   1.351       .  A
N788        C789   1.354       .  A
C789        C790   1.392       .  A
C789        H792   1.082       .  S
C790        C791   1.392       .  A
C790       C1178   1.504       .  S
C791        H793   1.082       .  S
C794        C795   1.535       .  S
C794        C800   1.537       .  S
C794        C798   1.548       .  S
C794        C929   1.556       .  S
C795        H802   1.085       .  S
C795        C796   1.366       .  D
C796        C797   1.560       .  S
C796        C863   1.515       .  S
C797        C801   1.560       .  S
C797        C799   1.578       .  S
C797        H803   1.110       .  S
C798        H804   1.084       .  S
C798        C799   1.382       .  D
C799        C855   1.533       .  S
C800        H805   1.083       .  S
C800        C801   1.362       .  D
C801        C965   1.504       .  S
C806        C807   1.532       .  S
C806        C812   1.534       .  S
C806        C810   1.542       .  S
C806        C951   1.553       .  S
C807        H814   1.085       .  S
C807        C808   1.365       .  D
C808        C809   1.563       .  S
C808       C1023   1.512       .  S
C809        C813   1.559       .  S
C809        C811   1.578       .  S
C809        H815   1.110       .  S
C810        H816   1.084       .  S
C810        C811   1.385       .  D
C811        C851   1.538       .  S
C812        H817   1.084       .  S
C812        C813   1.360       .  D
C813        C885   1.500       .  S
C818        C819   1.533       .  S
C818        C824   1.538       .  S
C818        C822   1.550       .  S
C818       C1065   1.558       .  S
C819        H826   1.085       .  S
C819        C820   1.363       .  D
C820        C821   1.555       .  S
C820       C1001   1.505       .  S
C821        C825   1.558       .  S
C821        C823   1.569       .  S
C821        H827   1.110       .  S
C822        H828   1.084       .  S
C822        C823   1.385       .  D
C823        C847   1.529       .  S
C824        H829   1.083       .  S
C824        C825   1.364       .  D
C825       C1051   1.505       .  S
C830        C831   1.531       .  S
C830        C836   1.536       .  S
C830        C834   1.546       .  S
C830        C987   1.556       .  S
C831        H838   1.085       .  S
C831        C832   1.363       .  D
C832        C833   1.567       .  S
C832        C907   1.508       .  S
C833        C837   1.559       .  S
C833        C835   1.577       .  S
C833        H839   1.110       .  S
C834        H840   1.085       .  S
C834        C835   1.382       .  D
C835        C843   1.532       .  S
C836        H841   1.084       .  S
C836        C837   1.365       .  D
C837       C1037   1.511       .  S
C842        C844   1.573       .  S
C842        C848   1.568       .  S
C842        C852   1.564       .  S
C842        C856   1.582       .  S
C843        H845   1.085       .  S
C843        C844   1.371       .  D
C844        H846   1.083       .  S
C847        H849   1.083       .  S
C847        C848   1.372       .  D
C848        H850   1.084       .  S
C851        H853   1.084       .  S
C851        C852   1.370       .  D
C852        H854   1.085       .  S
C855        H857   1.082       .  S
C855        C856   1.379       .  D
C856        H858   1.085       .  S
C859        C860   1.405       .  A
C859        C864   1.400       .  A
C859        H865   1.081       .  S
C860        C861   1.413       .  A
C861        C862   1.415       .  A
C861        H866   1.082       .  S
C862        C863   1.408       .  A
C862        H867   1.078       .  S
C863        C864   1.411       .  A
C864        H868   1.082       .  S
C869        C870   1.210       .  T
C871        C872   1.213       .  T
C873        C874   1.214       .  T
C875        C876   1.212       .  T
C877        C878   1.214       .  T
C879        C880   1.211       .  T
C881        C882   1.409       .  A
C881        C886   1.410       .  A
C881        H887   1.083       .  S
C882        C883   1.406       .  A
C883        C884   1.403       .  A
C883        H888   1.083       .  S
C884        C885   1.408       .  A
C884        H889   1.083       .  S
C885        C886   1.407       .  A
C886        H890   1.077       .  S
C891        C892   1.212       .  T
C893        C894   1.210       .  T
C895        C896   1.210       .  T
C897        C898   1.209       .  T
C899        C900   1.213       .  T
C901        C902   1.211       .  T
C903        C904   1.411       .  A
C903        C908   1.410       .  A
C903        H909   1.082       .  S
C904        C905   1.406       .  A
C905        C906   1.404       .  A
C905        H910   1.082       .  S
C906        C907   1.411       .  A
C906        H911   1.083       .  S
C907        C908   1.405       .  A
C908        H912   1.074       .  S
C913        C914   1.212       .  T
C915        C916   1.209       .  T
C917        C918   1.207       .  T
C919        C920   1.209       .  T
C921        C922   1.211       .  T
C923        C924   1.211       .  T
C925        C926   1.409       .  A
C925        C930   1.409       .  A
C925        H931   1.082       .  S
C926        C927   1.408       .  A
C927        C928   1.405       .  A
C927        H932   1.081       .  S
C928        C929   1.414       .  A
C928        H933   1.080       .  S
C929        C930   1.414       .  A
C930        H934   1.083       .  S
C935        C936   1.210       .  T
C937        C938   1.211       .  T
C939        C940   1.210       .  T
C941        C942   1.211       .  T
C943        C944   1.211       .  T
C945        C946   1.213       .  T
C947        C948   1.406       .  A
C947        C952   1.403       .  A
C947        H953   1.081       .  S
C948        C949   1.408       .  A
C949        C950   1.407       .  A
C949        H954   1.082       .  S
C950        C951   1.413       .  A
C950        H955   1.083       .  S
C951        C952   1.414       .  A
C952        H956   1.080       .  S
C957        C958   1.210       .  T
C959        C960   1.210       .  T
C961        C962   1.410       .  A
C961        C966   1.410       .  A
C961        H967   1.082       .  S
C962        C963   1.406       .  A
C963        C964   1.403       .  A
C963        H968   1.082       .  S
C964        C965   1.409       .  A
C964        H969   1.083       .  S
C965        C966   1.406       .  A
C966        H970   1.076       .  S
C971        C972   1.210       .  T
C973        C974   1.208       .  T
C975        C976   1.209       .  T
C977        C978   1.208       .  T
C979        C980   1.208       .  T
C981        C982   1.207       .  T
C983        C984   1.408       .  A
C983        C988   1.407       .  A
C983        H989   1.081       .  S
C984        C985   1.408       .  A
C985        C986   1.406       .  A
C985        H990   1.081       .  S
C986        C987   1.414       .  A
C986        H991   1.081       .  S
C987        C988   1.413       .  A
C988        H992   1.082       .  S
C993        C994   1.212       .  T
C995        C996   1.210       .  T
C997        C998   1.411       .  A
C997       C1002   1.410       .  A
C997       H1003   1.082       .  S
C998        C999   1.405       .  A
C999       C1000   1.398       .  A
C999       H1004   1.082       .  S
C1000      C1001   1.409       .  A
C1000      H1005   1.083       .  S
C1001      C1002   1.405       .  A
C1002      H1006   1.077       .  S
C1007      C1008   1.210       .  T
C1009      C1010   1.207       .  T
C1011      C1012   1.208       .  T
C1013      C1014   1.207       .  T
C1015      C1016   1.212       .  T
C1017      C1018   1.213       .  T
C1019      C1020   1.413       .  A
C1019      C1024   1.413       .  A
C1019      H1025   1.082       .  S
C1020      C1021   1.406       .  A
C1021      C1022   1.401       .  A
C1021      H1026   1.081       .  S
C1022      C1023   1.412       .  A
C1022      H1027   1.083       .  S
C1023      C1024   1.406       .  A
C1024      H1028   1.079       .  S
C1029      C1030   1.210       .  T
C1031      C1032   1.211       .  T
C1033      C1034   1.405       .  A
C1033      C1038   1.400       .  A
C1033      H1039   1.081       .  S
C1034      C1035   1.412       .  A
C1035      C1036   1.413       .  A
C1035      H1040   1.082       .  S
C1036      C1037   1.407       .  A
C1036      H1041   1.075       .  S
C1037      C1038   1.410       .  A
C1038      H1042   1.083       .  S
C1043      C1044   1.208       .  T
C1045      C1046   1.211       .  T
C1047      C1048   1.406       .  A
C1047      C1052   1.402       .  A
C1047      H1053   1.082       .  S
C1048      C1049   1.410       .  A
C1049      C1050   1.408       .  A
C1049      H1054   1.082       .  S
C1050      C1051   1.404       .  A
C1050      H1055   1.077       .  S
C1051      C1052   1.410       .  A
C1052      H1056   1.083       .  S
C1057      C1058   1.211       .  T
C1059      C1060   1.209       .  T
C1061      C1062   1.409       .  A
C1061      C1066   1.409       .  A
C1061      H1067   1.081       .  S
C1062      C1063   1.408       .  A
C1063      C1064   1.406       .  A
C1063      H1068   1.081       .  S
C1064      C1065   1.414       .  A
C1064      H1069   1.080       .  S
C1065      C1066   1.415       .  A
C1066      H1070   1.083       .  S
C1071      C1072   1.212       .  T
C1073      C1074   1.211       .  T
C1075      C1076   1.412       .  A
C1075      C1080   1.406       .  A
C1075      H1081   1.082       .  S
C1076      C1077   1.412       .  A
C1077      C1078   1.403       .  A
C1077      H1082   1.082       .  S
C1078      C1079   1.407       .  A
C1078      H1083   1.081       .  S
C1079      C1080   1.408       .  A
C1080      H1084   1.081       .  S
C1085      C1086   1.411   1_554  A
C1085      C1090   1.401       .  A
C1085      H1091   1.083   1_554  S
C1086      C1087   1.408       .  A
C1087      C1088   1.416   1_556  A
C1087      H1092   1.079       .  S
C1088      C1089   1.414       .  A
C1088      H1093   1.082       .  S
C1089      C1090   1.406       .  A
C1090      H1094   1.081       .  S
C1095      C1096   1.408   1_545  A
C1095      C1100   1.405       .  A
C1095      H1101   1.083       .  S
C1096      C1097   1.407       .  A
C1097      C1098   1.409       .  A
C1097      H1102   1.076       .  S
C1098      C1099   1.408   1_565  A
C1098      H1103   1.083       .  S
C1099      C1100   1.407       .  A
C1100      H1104   1.083       .  S
C1105      H1107   1.087       .  S
C1105      C1106   1.365   1_566  D
C1106      H1108   1.086       .  S
C1109      C1110   1.414       .  A
C1109      C1114   1.408       .  A
C1109      H1115   1.083       .  S
C1110      C1111   1.414       .  A
C1111      C1112   1.406       .  A
C1111      H1116   1.080       .  S
C1112      C1113   1.408       .  A
C1112      H1117   1.081       .  S
C1113      C1114   1.408       .  A
C1114      H1118   1.082       .  S
C1119      C1120   1.408       .  A
C1119      C1124   1.414       .  A
C1119      H1125   1.077       .  S
C1120      C1121   1.411       .  A
C1121      C1122   1.400   1_565  A
C1121      H1126   1.083       .  S
C1122      C1123   1.405       .  A
C1122      H1127   1.081       .  S
C1123      C1124   1.412   1_545  A
C1124      H1128   1.082       .  S
C1129      C1130   1.403       .  A
C1129      C1134   1.407   1_655  A
C1129      H1135   1.076       .  S
C1130      C1131   1.410   1_655  A
C1131      C1132   1.400       .  A
C1131      H1136   1.083       .  S
C1132      C1133   1.405       .  A
C1132      H1137   1.082       .  S
C1133      C1134   1.409       .  A
C1134      H1138   1.082   1_455  S
C1139      H1141   1.087       .  S
C1139      C1140   1.370   1_465  D
C1140      H1142   1.085       .  S
C1143      C1144   1.414       .  A
C1143      C1148   1.409       .  A
C1143      H1149   1.083       .  S
C1144      C1145   1.415       .  A
C1145      C1146   1.406       .  A
C1145      H1150   1.079       .  S
C1146      C1147   1.407       .  A
C1146      H1151   1.081       .  S
C1147      C1148   1.408       .  A
C1148      H1152   1.082       .  S
C1153      C1154   1.407       .  A
C1153      C1158   1.407       .  A
C1153      H1159   1.077       .  S
C1154      C1155   1.408   1_556  A
C1155      C1156   1.404       .  A
C1155      H1160   1.083       .  S
C1156      C1157   1.406       .  A
C1156      H1161   1.083       .  S
C1157      C1158   1.406   1_554  A
C1158      H1162   1.083       .  S
C1163      C1164   1.408   1_455  A
C1163      C1168   1.414       .  A
C1163      H1169   1.080   1_455  S
C1164      C1165   1.411   1_655  A
C1165      C1166   1.401       .  A
C1165      H1170   1.083       .  S
C1166      C1167   1.406       .  A
C1166      H1171   1.081       .  S
C1167      C1168   1.414       .  A
C1168      H1172   1.081       .  S
C1173      H1175   1.083       .  S
C1173      C1174   1.371   1_556  D
C1174      H1176   1.087   1_455  S
C1177      C1178   1.407       .  A
C1177      C1182   1.405       .  A
C1177      H1183   1.082       .  S
C1178      C1179   1.410       .  A
C1179      C1180   1.411       .  A
C1179      H1184   1.082       .  S
C1180      C1181   1.406       .  A
C1180      H1185   1.076       .  S
C1181      C1182   1.410       .  A
C1182      H1186   1.083       .  S
C1187      C1188   1.414       .  A
C1187      C1192   1.407       .  A
C1187      H1193   1.081       .  S
C1188      C1189   1.415       .  A
C1189      C1190   1.411       .  A
C1189      H1194   1.082       .  S
C1190      C1191   1.409       .  A
C1190      H1195   1.082       .  S
C1191      C1192   1.409       .  A
C1192      H1196   1.081       .  S
C1197      C1198   1.412       .  A
C1197      C1202   1.399       .  A
C1197      H1203   1.082       .  S
C1198      C1199   1.408       .  A
C1199      C1200   1.416       .  A
C1199      H1204   1.079       .  S
C1200      C1201   1.414       .  A
C1200      H1205   1.082       .  S
C1201      C1202   1.405       .  A
C1202      H1206   1.081       .  S
C1207      H1209   1.087       .  S
C1207      C1208   1.374       .  D
C1208      H1210   1.083       .  S
