geometry optimzed in LAMMPS
_audit_creation_date              2020-11-30 
_audit_creation_method            'lammps2cif' 
_symmetry_space_group_name_H-M    'P1' 
_symmetry_Int_Tables_number       1 
_symmetry_cell_setting            triclinic 
loop_ 
_symmetry_equiv_pos_as_xyz 
  x,y,z 
_cell_length_a                    62.84483657 
_cell_length_b                    40.8764144435792 
_cell_length_c                    38.16763351067349 
_cell_angle_alpha                 90.04699181616233 
_cell_angle_beta                  90.55250691595491 
_cell_angle_gamma                 89.80583104171934 
loop_ 
_atom_site_label 
_atom_site_type_symbol 
_atom_site_fract_x 
_atom_site_fract_y 
_atom_site_fract_z 
_atom_site_charge 
N1          N  0.00262026  0.45093326  0.75873145    -0.36400
N2          N  0.03228082  0.99898970  0.77629061    -0.56900
N3          N  0.00138779  0.04872801  0.75715913    -0.36400
N4          N  0.97039511  0.99786461  0.73928133    -0.56900
C5          C  0.02012911  0.43168495  0.76203074     0.27200
C6          C  0.98612982  0.43149295  0.74929123     0.27200
C7          C  0.01930808  0.06698709  0.75971491     0.27200
C8          C  0.98666508  0.06662105  0.73940389     0.27200
C9          C  0.04657083  0.47478431  0.77881761     0.35800
C10         C  0.04281241  0.02548412  0.78828223     0.35800
C11         C  0.95855609  0.47500234  0.73818090     0.35800
C12         C  0.95792515  0.02465766  0.73458674     0.35800
C13         C  0.01455466  0.39946017  0.75543805    -0.21600
C14         C  0.99313961  0.39927166  0.74787551    -0.21600
C15         C  0.01582893  0.09698414  0.74363317    -0.21600
C16         C  0.99519670  0.09684668  0.73110188    -0.21600
C17         C  0.06544733  0.48455109  0.79462028    -0.22700
C18         C  0.06079501  0.01584063  0.80701285    -0.22700
C19         C  0.93775232  0.48551286  0.73314559    -0.22700
C20         C  0.93684311  0.01535191  0.73093909    -0.22700
C21         C  0.04087623  0.44190635  0.77214532    -0.18000
C22         C  0.96480488  0.44174082  0.74280866    -0.18000
C23         C  0.96523248  0.05743535  0.73292353    -0.18000
C24         C  0.03838372  0.05786855  0.77751399    -0.18000
H25         H  0.02477064  0.37810693  0.75651909     0.14900
H26         H  0.98389415  0.37768453  0.74186221     0.14900
H27         H  0.02690343  0.11709412  0.74153324     0.14900
H28         H  0.98732562  0.11681059  0.71754311     0.14900
H29         H  0.07804992  0.46912214  0.80493480     0.13100
H30         H  0.07276776  0.03140365  0.81886452     0.13100
H31         H  0.92353487  0.47065702  0.73234237     0.13100
H32         H  0.92317619  0.03104315  0.72649564     0.13100
H33         H  0.00154150  0.47568186  0.76525937     0.26400
H34         H  0.99852237  0.02700364  0.77031428     0.26400
C35         C  0.14511387  0.24701566  0.77624842    -0.02200
C36         C  0.85857406  0.24881244  0.72081775    -0.02200
C37         C  0.63431673  0.00537409  0.73212316    -0.02200
N38         N  0.49425787  0.30285603  0.78277130    -0.36400
N39         N  0.53010564  0.25832942  0.77393022    -0.56900
N40         N  0.49997558  0.20425974  0.76964187    -0.36400
N41         N  0.46429528  0.24912307  0.78152705    -0.56900
C42         C  0.51067298  0.32295734  0.79090850     0.27200
C43         C  0.47603111  0.31853184  0.79142872     0.27200
C44         C  0.51876177  0.18783363  0.77051445     0.27200
C45         C  0.48437015  0.18272901  0.77767971     0.27200
C46         C  0.54028962  0.28724670  0.77022042     0.35800
C47         C  0.54322826  0.23490765  0.76122721     0.35800
C48         C  0.45037123  0.27422358  0.77722629     0.35800
C49         C  0.45348621  0.22130754  0.77428542     0.35800
C50         C  0.50274492  0.35154264  0.80556663    -0.21600
C51         C  0.48088329  0.34886690  0.80556977    -0.21600
C52         C  0.51504108  0.15536669  0.77892655    -0.21600
C53         C  0.49341647  0.15221766  0.78376395    -0.21600
C54         C  0.56013961  0.28206813  0.75561681    -0.22700
C55         C  0.56200831  0.24892099  0.74997736    -0.22700
C56         C  0.43052502  0.26226992  0.76783653    -0.22700
C57         C  0.43245389  0.22874648  0.76620460    -0.22700
C58         C  0.53218339  0.31810116  0.78096652    -0.18000
C59         C  0.45520189  0.30766264  0.78302688    -0.18000
C60         C  0.46208459  0.18918448  0.77648161    -0.18000
C61         C  0.53894527  0.20088222  0.76155176    -0.18000
H62         H  0.51173065  0.37278111  0.81383451     0.14900
H63         H  0.46978625  0.36749728  0.81405967     0.14900
H64         H  0.52667952  0.13587127  0.78104686     0.14900
H65         H  0.48521886  0.12976507  0.79006046     0.14900
H66         H  0.57205343  0.30025444  0.74970347     0.13100
H67         H  0.57566510  0.23653669  0.73901816     0.13100
H68         H  0.41612463  0.27621267  0.76300383     0.13100
H69         H  0.41984059  0.21178584  0.75962983     0.13100
H70         H  0.49515416  0.28216571  0.76708432     0.26400
H71         H  0.49772851  0.22770925  0.75986472     0.26400
C72         C  0.35426556  0.00154762  0.75779912    -0.02200
O73         O  0.29712095  0.35274443  0.98440172    -0.71500
O74         O  0.26765483  0.30132087  0.05280106    -0.71700
O75         O  0.26496105  0.30885395  0.98241883    -0.71600
O76         O  0.29980173  0.34561658  0.05548602    -0.71600
O77         O  0.27737225  0.38586444  0.05984965    -0.71600
O78         O  0.24157168  0.34653516  0.99156521    -0.71600
O79         O  0.24582003  0.34176442  0.06117123    -0.71500
O80         O  0.27331426  0.39081484  0.98957478    -0.71700
V81         V  0.28203380  0.32785956  0.01895456     1.35200
V82         V  0.26003514  0.36547960  0.02537575     1.35200
C83         C  0.28984030  0.38025118  0.97440645     0.77700
C84         C  0.25169303  0.31295066  0.06871084     0.77800
C85         C  0.24695821  0.32121487  0.97487605     0.77600
C86         C  0.29442295  0.37229059  0.07002114     0.77600
N87         N  0.99956530  0.44606591  0.25986471    -0.36400
N88         N  0.96179243  0.99877942  0.27299752    -0.56900
N89         N  0.99451117  0.04890481  0.27153482    -0.36400
N90         N  0.02674203  0.99803039  0.26341246    -0.56900
C91         C  0.98221510  0.42809255  0.25148765     0.27200
C92         C  0.01688539  0.42791815  0.25182517     0.27200
C93         C  0.97667053  0.06735236  0.26776053     0.27200
C94         C  0.01117776  0.06714451  0.26066494     0.27200
C95         C  0.95459330  0.46908756  0.26738984     0.35800
C96         C  0.95013663  0.02479209  0.28331188     0.35800
C97         C  0.04433581  0.47055549  0.26105681     0.35800
C98         C  0.03949030  0.02451683  0.26678257     0.35800
C99         C  0.98860367  0.39795853  0.23843895    -0.21600
C100        C  0.01050844  0.39781303  0.23877803    -0.21600
C101        C  0.98213067  0.09793482  0.25501232    -0.21600
C102        C  0.00387037  0.09790324  0.25084815    -0.21600
C103        C  0.93473407  0.47762069  0.28003302    -0.22700
C104        C  0.93031400  0.01454378  0.29456914    -0.22700
C105        C  0.06494827  0.48127234  0.26695449    -0.22700
C106        C  0.06018722  0.01455317  0.27389030    -0.22700
C107        C  0.96084939  0.43727514  0.25767126    -0.18000
C108        C  0.03827187  0.43736048  0.25754268    -0.18000
C109        C  0.03290845  0.05736472  0.26114378    -0.18000
C110        C  0.95571307  0.05769441  0.27675797    -0.18000
H111        H  0.97854071  0.37793050  0.23006102     0.14900
H112        H  0.02059514  0.37780633  0.23044739     0.14900
H113        H  0.97158281  0.11830328  0.24946578     0.14900
H114        H  0.01319424  0.11831686  0.24164753     0.14900
H115        H  0.92163107  0.46148161  0.28592040     0.13100
H116        H  0.91722752  0.02970135  0.30325569     0.13100
H117        H  0.07896412  0.46647357  0.27193559     0.13100
H118        H  0.07407704  0.02985619  0.27720854     0.13100
H119        H  0.99964511  0.46789494  0.27384111     0.26400
H120        H  0.99546109  0.02632066  0.28391795     0.26400
C121        C  0.14309944  0.24353702  0.24959016    -0.02200
C122        C  0.85422855  0.24985887  0.23632302    -0.02200
C123        C  0.64436733  0.99981155  0.21664260    -0.02200
C124        C  0.36361274  0.99291802  0.28585492    -0.02200
N125        N  0.50392850  0.29664081  0.25014194    -0.36400
N126        N  0.47492973  0.24218041  0.26641322    -0.56900
N127        N  0.50630008  0.19678769  0.24067685    -0.36400
N128        N  0.53505441  0.25089297  0.22373736    -0.56900
C129        C  0.48824461  0.31327072  0.26653554     0.27200
C130        C  0.52046392  0.31749607  0.24563815     0.27200
C131        C  0.48963134  0.17604375  0.24342563     0.27200
C132        C  0.52234610  0.18005240  0.22560893     0.27200
C133        C  0.46281226  0.26704688  0.27819668     0.35800
C134        C  0.46361560  0.21447411  0.27096344     0.35800
C135        C  0.54635105  0.27842658  0.21844884     0.35800
C136        C  0.54778956  0.22577457  0.21466713     0.35800
C137        C  0.49460884  0.34541296  0.27158474    -0.21600
C138        C  0.51497224  0.34796331  0.25883877    -0.21600
C139        C  0.49532087  0.14571889  0.22995902    -0.21600
C140        C  0.51607996  0.14808996  0.21937338    -0.21600
C141        C  0.44378453  0.25500064  0.29099444    -0.22700
C142        C  0.44436911  0.22169859  0.28666073    -0.22700
C143        C  0.56599754  0.27069800  0.20425194    -0.22700
C144        C  0.56702818  0.23731828  0.20241369    -0.22700
C145        C  0.46817766  0.30062537  0.27671716    -0.18000
C146        C  0.54038520  0.31003228  0.22996332    -0.18000
C147        C  0.54276800  0.19241965  0.21823758    -0.18000
C148        C  0.46970802  0.18304670  0.25898857    -0.18000
H149        H  0.48565335  0.36493091  0.28378245     0.14900
H150        H  0.52460685  0.36985897  0.25920043     0.14900
H151        H  0.48566707  0.12388172  0.22842957     0.14900
H152        H  0.52538657  0.12857706  0.20790976     0.14900
H153        H  0.43073824  0.26878177  0.30207281     0.13100
H154        H  0.43181112  0.20486746  0.29345688     0.13100
H155        H  0.57869497  0.28725156  0.19739255     0.13100
H156        H  0.58048249  0.22315454  0.19335591     0.13100
H157        H  0.50255470  0.27319817  0.24018870     0.26400
H158        H  0.50772654  0.21979231  0.25178933     0.26400
O159        O  0.71623364  0.14881089  0.93800708    -0.71500
O160        O  0.75060261  0.18788224  0.00939896    -0.71700
O161        O  0.74904751  0.19120831  0.93909216    -0.71600
O162        O  0.71748937  0.14514640  0.00842485    -0.71600
O163        O  0.73974701  0.10466461  0.00502727    -0.71600
O164        O  0.77140988  0.15070967  0.93657781    -0.72000
O165        O  0.77229817  0.14709695  0.00688542    -0.71500
O166        O  0.73847828  0.10830397  0.93510493    -0.71700
V167        V  0.73374623  0.16750607  0.97375032     1.35200
V168        V  0.75505954  0.12853758  0.97091643     1.35200
C169        C  0.72141002  0.12167418  0.92451320     0.77700
C170        C  0.76757437  0.17440719  0.02031157     0.77800
C171        C  0.76571059  0.17880969  0.92617002     0.77600
C172        C  0.72308512  0.11671412  0.01815524     0.77600
O173        O  0.21564571  0.14265405  0.54195842    -0.71500
O174        O  0.24696404  0.09137356  0.47692181    -0.71700
O175        O  0.24309213  0.09169706  0.54690836    -0.71600
O176        O  0.21981865  0.14264623  0.47134620    -0.71600
O177        O  0.24641482  0.17626484  0.47564959    -0.71600
O178        O  0.26907992  0.12633250  0.55161556    -0.71600
O179        O  0.27322240  0.12525016  0.48125596    -0.71500
O180        O  0.24155627  0.17711482  0.54567701    -0.71700
V181        V  0.23182153  0.11784715  0.50933517     1.35200
V182        V  0.25706376  0.15053840  0.51351867     1.35200
C183        C  0.22310629  0.16867920  0.55512310     0.77700
C184        C  0.26559010  0.09924977  0.46817197     0.77800
C185        C  0.26024208  0.10034336  0.56195368     0.77600
C186        C  0.22933895  0.16795435  0.46047977     0.77600
O187        O  0.77132693  0.37213456  0.51895372    -0.71500
O188        O  0.74184879  0.42638049  0.45344933    -0.71700
O189        O  0.74184255  0.41965090  0.52350641    -0.71600
O190        O  0.77167455  0.37891396  0.44859099    -0.71600
O191        O  0.74766391  0.34113443  0.44567319    -0.71600
O192        O  0.71612785  0.38492534  0.51677309    -0.71600
O193        O  0.71827159  0.38858745  0.44648047    -0.71500
O194        O  0.74555961  0.33706834  0.51676898    -0.71700
V195        V  0.75624398  0.39852533  0.48598949     1.35200
V196        V  0.73240555  0.36355338  0.48151581     1.35200
C197        C  0.76302058  0.34608842  0.53034349     0.77700
C198        C  0.72501151  0.41665735  0.43837710     0.77800
C199        C  0.72373093  0.40953686  0.53266728     0.77600
C200        C  0.76479020  0.35309944  0.43412268     0.77600
C201        C  0.34637942  0.00398282  0.31415156     0.01600
C202        C  0.33423342  0.03376872  0.30821467     0.04400
C203        C  0.32026166  0.04652064  0.33372110    -0.11700
C204        C  0.31677340  0.02978204  0.36509464     0.23700
C205        C  0.32738154  0.00014055  0.37126178    -0.12200
C206        C  0.34337339  0.98878477  0.34822549     0.05100
C207        C  0.30337499  0.04501897  0.39305676     0.27500
C208        C  0.31314411  0.06186600  0.42113197    -0.12900
C209        C  0.30078703  0.07790154  0.44652289     0.05600
C210        C  0.27831116  0.07871820  0.44337527    -0.08900
C211        C  0.26845337  0.06018503  0.41616011     0.06400
C212        C  0.28100304  0.04331297  0.39137458    -0.13200
Br213      Br  0.32214615  0.47956833  0.41651458    -0.05300
Br214      Br  0.33476134  0.05782130  0.26459211     0.00300
Br215      Br  0.31514287  0.09653044  0.48695162     0.00800
Br216      Br  0.26768923  0.01778821  0.35469660    -0.03700
Br217      Br  0.36250266  0.45616755  0.37214401     0.00900
Br218      Br  0.30529898  0.08744425  0.32584074    -0.02900
Br219      Br  0.34369533  0.06338968  0.42497514    -0.03800
Br220      Br  0.23784828  0.05789267  0.41138476     0.00200
C221        C  0.37693789  0.45628706  0.29888656     0.01600
C222        C  0.36817690  0.42347596  0.29954598     0.04400
C223        C  0.38143536  0.39541077  0.29964431    -0.11700
C224        C  0.40352286  0.39868900  0.29794062     0.23700
C225        C  0.41257952  0.42972877  0.30079279    -0.12200
C226        C  0.39966815  0.45768980  0.30498249     0.05100
C227        C  0.41770985  0.36974639  0.29411002     0.27500
C228        C  0.43046374  0.35930352  0.32266886    -0.12900
C229        C  0.44712448  0.33680941  0.31727072     0.05600
C230        C  0.45075996  0.32434460  0.28344351    -0.08900
C231        C  0.43706091  0.33292187  0.25552234     0.06400
C232        C  0.42052518  0.35545565  0.26084992    -0.13200
Br233      Br  0.44324769  0.43405530  0.29641158    -0.05300
Br234      Br  0.33814653  0.41466074  0.30317615     0.00300
Br235      Br  0.46520080  0.32345880  0.35577424     0.00800
Br236      Br  0.40197966  0.36681309  0.22233606    -0.03700
Br237      Br  0.41506996  0.49318501  0.32574639     0.00900
Br238      Br  0.36960935  0.35175258  0.30135934    -0.02900
Br239      Br  0.42524602  0.37646130  0.36891056    -0.03800
Br240      Br  0.44126855  0.31393066  0.20969941     0.00200
C241        C  0.37820157  0.02503795  0.27988960     0.01600
C242        C  0.38638893  0.03468990  0.24629837     0.04400
C243        C  0.40462332  0.05440186  0.24442017    -0.11700
C244        C  0.40903574  0.07667602  0.27132035     0.23700
C245        C  0.39673222  0.07544569  0.30162152    -0.12200
C246        C  0.38348348  0.04815600  0.30785410     0.05100
C247        C  0.42516896  0.10305998  0.26688546     0.27500
C248        C  0.44365789  0.10381457  0.28827475    -0.12900
C249        C  0.45752180  0.13074343  0.28693822     0.05600
C250        C  0.45409936  0.15571155  0.26206186    -0.08900
C251        C  0.43617186  0.15429067  0.23957718     0.06400
C252        C  0.42129744  0.12884127  0.24301201    -0.13200
Br253      Br  0.39872292  0.11114723  0.33503134    -0.05300
Br254      Br  0.36997253  0.03643974  0.20302118     0.00300
Br255      Br  0.48095657  0.13402494  0.31984699     0.00800
Br256      Br  0.39509860  0.13030080  0.21617910    -0.03700
Br257      Br  0.37727242  0.04300572  0.35708035     0.00900
Br258      Br  0.42233646  0.05256414  0.20345178    -0.02900
Br259      Br  0.45022737  0.06798200  0.31936312    -0.03800
Br260      Br  0.43208636  0.18710344  0.20379760     0.00200
C261        C  0.66181911  0.49526865  0.25386933     0.01600
C262        C  0.66048010  0.01351838  0.28236345     0.04400
C263        C  0.67389559  0.50627953  0.31585800    -0.11700
C264        C  0.68489653  0.47662965  0.31705371     0.23700
C265        C  0.68562065  0.45678316  0.28750466    -0.12200
C266        C  0.67439400  0.46539232  0.25667275     0.05100
C267        C  0.69444328  0.46469119  0.35055941     0.27500
C268        C  0.71497311  0.47445319  0.36102286    -0.12900
C269        C  0.72450094  0.46106414  0.39143930     0.05600
C270        C  0.71372347  0.43660536  0.41092166    -0.08900
C271        C  0.69219042  0.42960917  0.40204334     0.06400
C272        C  0.68284129  0.44310713  0.37166792    -0.13200
Br273      Br  0.70280313  0.41717707  0.29011426    -0.05300
Br274      Br  0.64346345  0.05205571  0.29369877     0.00300
Br275      Br  0.75205103  0.47755496  0.40560908     0.00800
Br276      Br  0.65411853  0.43145050  0.35812552    -0.03700
Br277      Br  0.67969439  0.43585841  0.21825316     0.00900
Br278      Br  0.67731203  0.03179150  0.35209166    -0.02900
Br279      Br  0.73018677  0.50555942  0.33267384    -0.03800
Br280      Br  0.67442962  0.40357241  0.43228036     0.00200
C281        C  0.71064898  0.09754568  0.04414992     0.01600
C282        C  0.70673986  0.06382186  0.03842030     0.04400
C283        C  0.69687412  0.04472049  0.06440757    -0.11700
C284        C  0.69036380  0.05912949  0.09608716     0.23700
C285        C  0.69319422  0.09309430  0.10103706    -0.12200
C286        C  0.70333495  0.11221246  0.07536365     0.05100
C287        C  0.67960987  0.03899991  0.12356938     0.27500
C288        C  0.65753393  0.03656978  0.12367527    -0.12900
C289        C  0.64700468  0.01949966  0.15059099     0.05600
C290        C  0.65809690  0.00742093  0.18169548    -0.08900
C291        C  0.68133982  0.00975306  0.17981186     0.06400
C292        C  0.69142338  0.02321399  0.14982207    -0.13200
Br293      Br  0.68296728  0.11365506  0.14301453    -0.05300
Br294      Br  0.71345564  0.04394601  0.99393345     0.00300
Br295      Br  0.61783338  0.50854661  0.14552706     0.00800
Br296      Br  0.72213905  0.02245450  0.14471318    -0.03700
Br297      Br  0.70775659  0.15828804  0.08398113     0.00900
Br298      Br  0.69555132  0.49687872  0.05763493    -0.02900
Br299      Br  0.64174781  0.05749576  0.08583201    -0.03800
Br300      Br  0.70176621  0.00363083  0.21792957     0.00200
C301        C  0.56059105  0.16890857  0.21706598     0.01600
C302        C  0.56605404  0.15316309  0.18563616     0.04400
C303        C  0.58233926  0.12962057  0.18584437    -0.11700
C304        C  0.59310309  0.12217857  0.21743825     0.23700
C305        C  0.58866314  0.13965659  0.24823160    -0.12200
C306        C  0.57224842  0.16286475  0.24813075     0.05100
C307        C  0.60605536  0.09220086  0.21965033     0.27500
C308        C  0.59575847  0.06263007  0.22517682    -0.12900
C309        C  0.60665588  0.03292382  0.22045880     0.05600
C310        C  0.62994123  0.03215165  0.21967341    -0.08900
C311        C  0.64002813  0.06409152  0.21728169     0.06400
C312        C  0.62794236  0.09311495  0.21504345    -0.13200
Br313      Br  0.60422670  0.13018793  0.29087314    -0.05300
Br314      Br  0.55066106  0.16302926  0.14298009     0.00300
Br315      Br  0.58853271  0.49581966  0.21189158     0.00800
Br316      Br  0.64115689  0.13530533  0.20779965    -0.03700
Br317      Br  0.56503388  0.18538955  0.29092783     0.00900
Br318      Br  0.58922931  0.10620219  0.14350777    -0.02900
Br319      Br  0.56566264  0.06367129  0.23708175    -0.03800
Br320      Br  0.67035879  0.07149002  0.22194609     0.00200
C321        C  0.63317824  0.46664788  0.21921425     0.01600
C322        C  0.63301948  0.44212067  0.19131062     0.04400
C323        C  0.62057104  0.41323692  0.19428866    -0.11700
C324        C  0.60626060  0.40922250  0.22178649     0.23700
C325        C  0.60652200  0.43137257  0.24954139    -0.12200
C326        C  0.62094629  0.45778962  0.25002253     0.05100
C327        C  0.59029276  0.38216461  0.22163341     0.27500
C328        C  0.57246144  0.38344641  0.19879259    -0.12900
C329        C  0.55616180  0.35997956  0.20145970     0.05600
C330        C  0.55702108  0.33608829  0.22804761    -0.08900
C331        C  0.57478030  0.33494372  0.25100967     0.06400
C332        C  0.59168690  0.35706979  0.24694876    -0.13200
Br333      Br  0.58452866  0.42765632  0.28502098    -0.05300
Br334      Br  0.65004733  0.44252560  0.14882954     0.00300
Br335      Br  0.53274562  0.36017234  0.16842298     0.00800
Br336      Br  0.61677269  0.35329421  0.27633552    -0.03700
Br337      Br  0.61888846  0.48363828  0.29220994     0.00900
Br338      Br  0.62325685  0.37727879  0.16139764    -0.02900
Br339      Br  0.57004186  0.41778715  0.16430572    -0.03800
Br340      Br  0.57586292  0.30304626  0.28829226     0.00200
C341        C  0.83808184  0.26190137  0.26651947     0.01600
C342        C  0.81503479  0.26616292  0.26285402     0.04400
C343        C  0.80273610  0.27932829  0.29062231    -0.11700
C344        C  0.81247032  0.29252251  0.32050113     0.23700
C345        C  0.83447850  0.29047095  0.32445208    -0.12200
C346        C  0.84693738  0.27399269  0.29942205     0.05100
C347        C  0.79948272  0.30813054  0.34858095     0.27500
C348        C  0.79778050  0.34244219  0.35080512    -0.12900
C349        C  0.78643274  0.35713523  0.37847935     0.05600
C350        C  0.77643683  0.33754493  0.40423289    -0.08900
C351        C  0.77773025  0.30300850  0.40103093     0.06400
C352        C  0.78942439  0.28852561  0.37370780    -0.13200
Br353      Br  0.84745216  0.31017121  0.36575005    -0.05300
Br354      Br  0.79803376  0.26197589  0.22039325     0.00300
Br355      Br  0.78391696  0.40420897  0.37933263     0.00800
Br356      Br  0.79220606  0.24148852  0.37087495    -0.03700
Br357      Br  0.87575462  0.26612947  0.31513021     0.00900
Br358      Br  0.77184602  0.28160041  0.28774863    -0.02900
Br359      Br  0.81129169  0.36922165  0.31577916    -0.03800
Br360      Br  0.76428368  0.27464067  0.43431526     0.00200
C361        C  0.84244353  0.24252549  0.19917761     0.01600
C362        C  0.82923177  0.21349653  0.19532626     0.04400
C363        C  0.81756074  0.20684686  0.16431853    -0.11700
C364        C  0.81950518  0.22662234  0.13486643     0.23700
C365        C  0.83328864  0.25335403  0.13583944    -0.12200
C366        C  0.84508335  0.26124886  0.16675828     0.05100
C367        C  0.80770732  0.21730705  0.10215534     0.27500
C368        C  0.81543647  0.19156782  0.08140146    -0.12900
C369        C  0.80263165  0.17773094  0.05472442     0.05600
C370        C  0.78167085  0.19003347  0.04790497    -0.08900
C371        C  0.77448464  0.21728820  0.06812084     0.06400
C372        C  0.78749805  0.23062930  0.09493128    -0.13200
Br373      Br  0.83634222  0.27809084  0.09276381    -0.05300
Br374      Br  0.82335590  0.18264142  0.23203913     0.00300
Br375      Br  0.81475087  0.14132025  0.02914277     0.00800
Br376      Br  0.77740458  0.26650996  0.12336415    -0.03700
Br377      Br  0.86690269  0.29383730  0.15755387     0.00900
Br378      Br  0.79709493  0.17116131  0.16200645    -0.02900
Br379      Br  0.84359924  0.17432984  0.09117187    -0.03800
Br380      Br  0.74645836  0.23628974  0.06184214     0.00200
C381        C  0.22075928  0.18735794  0.43064162     0.01600
C382        C  0.20670519  0.21369648  0.43662358     0.04400
C383        C  0.19631594  0.22922061  0.40815150    -0.11700
C384        C  0.20032559  0.21890946  0.37354205     0.23700
C385        C  0.21628722  0.19526619  0.36750831    -0.12200
C386        C  0.22637269  0.17937814  0.39597910     0.05100
C387        C  0.18520032  0.22753620  0.34449059     0.27500
C388        C  0.16729897  0.20793713  0.33938450    -0.12900
C389        C  0.15508363  0.21009315  0.30821946     0.05600
C390        C  0.15755104  0.23738781  0.28407378    -0.08900
C391        C  0.17570634  0.25825743  0.29152967     0.06400
C392        C  0.18958123  0.25230770  0.32040783    -0.13200
Br393      Br  0.22347818  0.18358779  0.32005833    -0.05300
Br394      Br  0.20152155  0.22805222  0.48388620     0.00300
Br395      Br  0.14061007  0.16915086  0.29905243     0.00800
Br396      Br  0.21457101  0.27889570  0.32842405    -0.03700
Br397      Br  0.24759614  0.14625928  0.38748661     0.00900
Br398      Br  0.17556131  0.26310023  0.41638037    -0.02900
Br399      Br  0.16062773  0.17579502  0.37524031    -0.03800
Br400      Br  0.18157529  0.29794686  0.26597296     0.00200
C401        C  0.05513544  0.41136333  0.25749828     0.01600
C402        C  0.05637451  0.38834294  0.28504981     0.04400
C403        C  0.07165535  0.36304552  0.28423795    -0.11700
C404        C  0.08642756  0.36134580  0.25667174     0.23700
C405        C  0.08574287  0.38512734  0.22990526    -0.12200
C406        C  0.06961605  0.40914855  0.22952772     0.05100
C407        C  0.10131173  0.33288561  0.25435935     0.27500
C408        C  0.11863487  0.32999810  0.27742019    -0.12900
C409        C  0.12980945  0.30007164  0.28047377     0.05600
C410        C  0.12853210  0.27572874  0.25267869    -0.08900
C411        C  0.11137961  0.28100806  0.22747449     0.06400
C412        C  0.09704032  0.30746238  0.23080801    -0.13200
Br413      Br  0.10686835  0.38469617  0.19361880    -0.05300
Br414      Br  0.03685552  0.39099728  0.32369121     0.00300
Br415      Br  0.14048935  0.29349453  0.32796164     0.00800
Br416      Br  0.07132099  0.30948500  0.20247445    -0.03700
Br417      Br  0.06636703  0.43742695  0.18933349     0.00900
Br418      Br  0.07186305  0.32987503  0.32026463    -0.02900
Br419      Br  0.12636252  0.36722677  0.30619001    -0.03800
Br420      Br  0.10776493  0.25587179  0.18478217     0.00200
C421        C  0.12601492  0.21463911  0.24417097     0.01600
C422        C  0.10685770  0.21414587  0.26511858     0.04400
C423        C  0.09043286  0.19158447  0.25849398    -0.11700
C424        C  0.09485789  0.16231384  0.24108289     0.23700
C425        C  0.11369655  0.16070700  0.22138986    -0.12200
C426        C  0.12704308  0.18860909  0.21831393     0.05100
C427        C  0.08002560  0.13363584  0.24541334     0.27500
C428        C  0.07592472  0.12105531  0.27939508    -0.12900
C429        C  0.06014107  0.09712332  0.28443052     0.05600
C430        C  0.04957773  0.08303546  0.25551950    -0.08900
C431        C  0.05416884  0.09438032  0.22149177     0.06400
C432        C  0.06846728  0.12062321  0.21660232    -0.13200
Br433      Br  0.12192449  0.11997065  0.19961994    -0.05300
Br434      Br  0.10270275  0.23893168  0.30751745     0.00300
Br435      Br  0.05214122  0.08456960  0.33126167     0.00800
Br436      Br  0.07047810  0.14058713  0.17095685    -0.03700
Br437      Br  0.14197975  0.19034957  0.17418726     0.00900
Br438      Br  0.06179207  0.20019743  0.27441362    -0.02900
Br439      Br  0.09138193  0.13672323  0.31992861    -0.03800
Br440      Br  0.04033712  0.07431033  0.18164011     0.00200
C441        C  0.93821236  0.08260538  0.27544936     0.01600
C442        C  0.92185921  0.07994121  0.24988826     0.04400
C443        C  0.90520935  0.10290259  0.24892691    -0.11700
C444        C  0.90632437  0.13124671  0.26987524     0.23700
C445        C  0.92269249  0.13420900  0.29530170    -0.12200
C446        C  0.93791907  0.10905614  0.29928043     0.05100
C447        C  0.89194990  0.15933378  0.26163893     0.27500
C448        C  0.89419027  0.17552499  0.22968556    -0.12900
C449        C  0.88063162  0.20179730  0.22052067     0.05600
C450        C  0.86617212  0.21612917  0.24573919    -0.08900
C451        C  0.86302069  0.19677227  0.27747451     0.06400
C452        C  0.87580269  0.16878040  0.28450252    -0.13200
Br453      Br  0.92503138  0.17335598  0.32337133    -0.05300
Br454      Br  0.92298042  0.04658693  0.21404422     0.00300
Br455      Br  0.88623259  0.21945048  0.17461259     0.00800
Br456      Br  0.87096637  0.14140495  0.32519958    -0.03700
Br457      Br  0.95841262  0.11091418  0.33720763     0.00900
Br458      Br  0.88124065  0.09651258  0.21758106    -0.02900
Br459      Br  0.91848004  0.16439190  0.20054432    -0.03800
Br460      Br  0.83982037  0.20167581  0.31084082     0.00200
C461        C  0.94397535  0.41243018  0.25263100     0.01600
C462        C  0.93749228  0.39316324  0.28107991     0.04400
C463        C  0.92190949  0.36904836  0.27605933    -0.11700
C464        C  0.91284331  0.36412109  0.24250890     0.23700
C465        C  0.91908895  0.38376453  0.21415932    -0.12200
C466        C  0.93459682  0.40803833  0.21926115     0.05100
C467        C  0.89833475  0.33613638  0.23668917     0.27500
C468        C  0.90696428  0.30494914  0.23326615    -0.12900
C469        C  0.89404810  0.27723273  0.23784684     0.05600
C470        C  0.87086176  0.27972537  0.23448710    -0.08900
C471        C  0.86277339  0.31310799  0.23307482     0.06400
C472        C  0.87633816  0.34026191  0.23749339    -0.13200
Br473      Br  0.90700789  0.37633381  0.16820474    -0.05300
Br474      Br  0.95024406  0.39970386  0.32672677     0.00300
Br475      Br  0.91115264  0.24268623  0.25914555     0.00800
Br476      Br  0.86501777  0.38393441  0.24400715    -0.03700
Br477      Br  0.94346617  0.43478667  0.18046886     0.00900
Br478      Br  0.91344909  0.34196877  0.31487035    -0.02900
Br479      Br  0.93748150  0.30099604  0.22596823    -0.03800
Br480      Br  0.83370104  0.32473037  0.22131749     0.00200
C481        C  0.15989502  0.24686519  0.21786836     0.01600
C482        C  0.16046505  0.27379126  0.19275196     0.04400
C483        C  0.17502486  0.27375959  0.16479897    -0.11700
C484        C  0.19329660  0.25436861  0.16621344     0.23700
C485        C  0.19465221  0.22958327  0.19135649    -0.12200
C486        C  0.17766815  0.22411518  0.21497219     0.05100
C487        C  0.21183789  0.26377493  0.14390577     0.27500
C488        C  0.21450999  0.25032277  0.11020090    -0.12900
C489        C  0.22875027  0.26491413  0.08633515     0.05600
C490        C  0.23986478  0.29378307  0.09554168    -0.08900
C491        C  0.23789648  0.30615273  0.12990098     0.06400
C492        C  0.22450188  0.29063452  0.15417081    -0.13200
Br493      Br  0.22010283  0.20287147  0.19263854    -0.05300
Br494      Br  0.14812212  0.31717869  0.19759339     0.00300
Br495      Br  0.23136909  0.24699691  0.04000684     0.00800
Br496      Br  0.22272095  0.30714315  0.20135002    -0.03700
Br497      Br  0.17989128  0.18367348  0.24097109     0.00900
Br498      Br  0.17130390  0.30292596  0.12501516    -0.02900
Br499      Br  0.19744078  0.21337807  0.09610980    -0.03800
Br500      Br  0.25279429  0.34539619  0.14355144     0.00200
C501        C  0.35159976  0.47108077  0.25007149     0.01600
C502        C  0.36480530  0.45496704  0.22390305     0.04400
C503        C  0.35591194  0.43890924  0.19433216    -0.11700
C504        C  0.33402099  0.43907692  0.18813983     0.23700
C505        C  0.32063553  0.45495922  0.21172998    -0.12200
C506        C  0.32867253  0.46826673  0.24357671     0.05100
C507        C  0.32495618  0.42134247  0.15706306     0.27500
C508        C  0.32102718  0.43811904  0.12542239    -0.12900
C509        C  0.31205477  0.42157258  0.09643013     0.05600
C510        C  0.30722324  0.38786706  0.09853651    -0.08900
C511        C  0.31247258  0.37059096  0.12954604     0.06400
C512        C  0.32076808  0.38747617  0.15896842    -0.13200
Br513      Br  0.29053077  0.45712986  0.19979830    -0.05300
Br514      Br  0.39571916  0.45569924  0.22401123     0.00300
Br515      Br  0.30716551  0.44498282  0.05315088     0.00800
Br516      Br  0.32578345  0.36460072  0.20252413    -0.03700
Br517      Br  0.30587049  0.47461201  0.27723082     0.00900
Br518      Br  0.37371993  0.41745341  0.15992862    -0.02900
Br519      Br  0.32766800  0.99609271  0.11960736    -0.03800
Br520      Br  0.30797945  0.32400008  0.13232543     0.00200
C521        C  0.29984182  0.39937612  0.94492942     0.01600
C522        C  0.32224152  0.40253683  0.94191802     0.04400
C523        C  0.33122400  0.42018528  0.91358964    -0.11700
C524        C  0.31806170  0.43545285  0.88818893     0.23700
C525        C  0.29580993  0.43326783  0.89178988    -0.12200
C526        C  0.28681951  0.41482067  0.91921864     0.05100
C527        C  0.32725404  0.45308531  0.85699606     0.27500
C528        C  0.33142158  0.48677586  0.85837947    -0.12900
C529        C  0.33803345  0.50422523  0.82805861     0.05600
C530        C  0.34191368  0.48761294  0.79502571    -0.08900
C531        C  0.33314783  0.45508220  0.79354734     0.06400
C532        C  0.32803998  0.43747314  0.82431170    -0.13200
Br533      Br  0.27751126  0.45598634  0.85882280    -0.05300
Br534      Br  0.34082211  0.38402966  0.97725555     0.00300
Br535      Br  0.33961506  0.05028109  0.82965144     0.00800
Br536      Br  0.31994640  0.39188977  0.82139576    -0.03700
Br537      Br  0.25648960  0.40888800  0.91915122     0.00900
Br538      Br  0.36164369  0.42398616  0.90954949    -0.02900
Br539      Br  0.33435557  0.00832690  0.90070501    -0.03800
Br540      Br  0.31901123  0.43831491  0.75231157     0.00200
C541        C  0.33756474  0.01175892  0.72734789     0.01600
C542        C  0.31457230  0.01264126  0.73114633     0.04400
C543        C  0.30090216  0.02000571  0.70229785    -0.11700
C544        C  0.30891135  0.03326941  0.67127947     0.23700
C545        C  0.33101576  0.03523033  0.66740726    -0.12200
C546        C  0.34509369  0.02355842  0.69393969     0.05100
C547        C  0.29419139  0.04837265  0.64423975     0.27500
C548        C  0.29085394  0.03338757  0.61121544    -0.12900
C549        C  0.27920609  0.04980631  0.58450059     0.05600
C550        C  0.27007358  0.08082292  0.59094681    -0.08900
C551        C  0.27187908  0.09444126  0.62475559     0.06400
C552        C  0.28424338  0.07882681  0.65094688    -0.13200
Br553      Br  0.34196007  0.05557144  0.62538174    -0.05300
Br554      Br  0.29997389  0.51519891  0.77241256     0.00300
Br555      Br  0.27662494  0.03056191  0.53851468     0.00800
Br556      Br  0.28803691  0.10010462  0.69565865    -0.03700
Br557      Br  0.37472295  0.02680781  0.68269246     0.00900
Br558      Br  0.27045239  0.01344170  0.70528746    -0.02900
Br559      Br  0.30251278  0.99049066  0.60254994    -0.03800
Br560      Br  0.25658659  0.13403320  0.63558892     0.00200
C561        C  0.43829360  0.33311920  0.77688386     0.01600
C562        C  0.42380056  0.34197491  0.80331610     0.04400
C563        C  0.40893482  0.36755260  0.79750646    -0.11700
C564        C  0.40851158  0.38459603  0.76533612     0.23700
C565        C  0.42285107  0.37533275  0.73878034    -0.12200
C566        C  0.43749371  0.34960530  0.74443719     0.05100
C567        C  0.39539153  0.41510853  0.76104100     0.27500
C568        C  0.37671861  0.41573763  0.74035770    -0.12900
C569        C  0.36626661  0.44587524  0.73281861     0.05600
C570        C  0.37226446  0.47531948  0.75061937    -0.08900
C571        C  0.39417788  0.47461581  0.76188886     0.06400
C572        C  0.40422806  0.44500950  0.77132281    -0.13200
Br573      Br  0.42337316  0.39931281  0.69526280    -0.05300
Br574      Br  0.42502351  0.31999143  0.84791497     0.00300
Br575      Br  0.35149989  0.44767666  0.68810358     0.00800
Br576      Br  0.43163282  0.44567624  0.79506019    -0.03700
Br577      Br  0.45700702  0.33730847  0.70790069     0.00900
Br578      Br  0.38970775  0.38048337  0.83403318    -0.02900
Br579      Br  0.36608694  0.37537075  0.72092366    -0.03800
Br580      Br  0.41275170  0.00407540  0.73500510     0.00200
C581        C  0.44681885  0.16089803  0.77715442     0.01600
C582        C  0.43376228  0.15577682  0.80658485     0.04400
C583        C  0.41818283  0.13096782  0.80617576    -0.11700
C584        C  0.41611219  0.10991975  0.77701202     0.23700
C585        C  0.42952709  0.11447964  0.74791930    -0.12200
C586        C  0.44459732  0.14005410  0.74780189     0.05100
C587        C  0.39913937  0.08415986  0.77627156     0.27500
C588        C  0.40122601  0.05538512  0.79614265    -0.12900
C589        C  0.38538408  0.03071271  0.79457167     0.05600
C590        C  0.36797601  0.03296308  0.76957303    -0.08900
C591        C  0.36401713  0.06566573  0.75660636     0.06400
C592        C  0.38001904  0.08987055  0.75809567    -0.13200
Br593      Br  0.42688364  0.08621101  0.70767687    -0.05300
Br594      Br  0.43736952  0.18263388  0.84777441     0.00300
Br595      Br  0.38655345  0.49794009  0.83701673     0.00800
Br596      Br  0.37544121  0.13227262  0.73662293    -0.03700
Br597      Br  0.46165401  0.14732548  0.70675551     0.00900
Br598      Br  0.39893482  0.12668996  0.84499493    -0.02900
Br599      Br  0.42715036  0.04846503  0.82289311    -0.03800
Br600      Br  0.33582067  0.08283617  0.74662486     0.00200
C601        C  0.70780963  0.10563854  0.89726586     0.01600
C602        C  0.68529441  0.10608972  0.89982796     0.04400
C603        C  0.67259452  0.09020574  0.87432532    -0.11700
C604        C  0.68216503  0.07317400  0.84656220     0.23700
C605        C  0.70454004  0.07223207  0.84416828    -0.12200
C606        C  0.71729937  0.08882479  0.86892842     0.05100
C607        C  0.66894978  0.05637425  0.81934345     0.27500
C608        C  0.66286811  0.02376297  0.82393570    -0.12900
C609        C  0.65349845  0.00581612  0.79600452     0.05600
C610        C  0.64897254  0.02120043  0.76236704    -0.08900
C611        C  0.65893935  0.05257298  0.75777797     0.06400
C612        C  0.66612031  0.07105196  0.78661813    -0.13200
Br613      Br  0.71774772  0.04776899  0.80682548    -0.05300
Br614      Br  0.67147443  0.12669296  0.93911026     0.00300
Br615      Br  0.65066271  0.46259299  0.80822190     0.00800
Br616      Br  0.67421595  0.11634446  0.78063837    -0.03700
Br617      Br  0.74776126  0.08972332  0.86229010     0.00900
Br618      Br  0.64198172  0.09119509  0.87739537    -0.02900
Br619      Br  0.66444580  0.50907049  0.87317396    -0.03800
Br620      Br  0.67260165  0.06558578  0.71494164     0.00200
C621        C  0.71177373  0.42581432  0.56150379     0.01600
C622        C  0.71006510  0.46036804  0.56328558     0.04400
C623        C  0.69804901  0.47539801  0.59004112    -0.11700
C624        C  0.68795456  0.45620997  0.61561370     0.23700
C625        C  0.69013334  0.42184978  0.61437843    -0.12200
C626        C  0.70188859  0.40672094  0.58753928     0.05100
C627        C  0.67510379  0.47181340  0.64407992     0.27500
C628        C  0.68482506  0.48087042  0.67569147    -0.12900
C629        C  0.67251046  0.49008509  0.70508782     0.05600
C630        C  0.64957450  0.49484511  0.70225155    -0.08900
C631        C  0.64032942  0.48470078  0.66919354     0.06400
C632        C  0.65298312  0.47409711  0.64078641    -0.13200
Br633      Br  0.67711026  0.39526104  0.64982209    -0.05300
Br634      Br  0.72344190  0.48746729  0.52849464     0.00300
Br635      Br  0.68861505  0.48745245  0.74855463     0.00800
Br636      Br  0.64019602  0.46258275  0.59607170    -0.03700
Br637      Br  0.70536178  0.35970166  0.58801890     0.00900
Br638      Br  0.69509627  0.52235996  0.59167507    -0.02900
Br639      Br  0.71565928  0.47902389  0.67846422    -0.03800
Br640      Br  0.60809562  0.97876764  0.66154438     0.00200
C641        C  0.61774437  0.03352875  0.71890607     0.01600
C642        C  0.62445205  0.06208660  0.70058941     0.04400
C643        C  0.61568607  0.09318689  0.70865477    -0.11700
C644        C  0.59732696  0.09554220  0.72934878     0.23700
C645        C  0.58713365  0.06652817  0.73894395    -0.12200
C646        C  0.59601519  0.03600449  0.73000589     0.05100
C647        C  0.58599054  0.12730476  0.73536202     0.27500
C648        C  0.58592792  0.14142954  0.76911449    -0.12900
C649        C  0.57109119  0.16622662  0.77746636     0.05600
C650        C  0.55638087  0.17742283  0.75196770    -0.08900
C651        C  0.55753333  0.16507002  0.71752055     0.06400
C652        C  0.57206397  0.13986088  0.70932284    -0.13200
Br653      Br  0.55997865  0.06846335  0.76252607    -0.05300
Br654      Br  0.63647044  0.05827273  0.65428067     0.00300
Br655      Br  0.57009402  0.18373144  0.82430657     0.00800
Br656      Br  0.57169115  0.12075351  0.66306271    -0.03700
Br657      Br  0.57610027  0.50503121  0.71906187     0.00900
Br658      Br  0.62825923  0.13227027  0.68986953    -0.02900
Br659      Br  0.60535610  0.12508432  0.80439283    -0.03800
Br660      Br  0.53865445  0.18219222  0.68181251     0.00200
C661        C  0.54639704  0.34749909  0.77905541     0.01600
C662        C  0.54309164  0.37085224  0.75233479     0.04400
C663        C  0.55651492  0.39826443  0.74973398    -0.11700
C664        C  0.57396159  0.40216457  0.77294713     0.23700
C665        C  0.57723781  0.37885043  0.79982661    -0.12200
C666        C  0.56329027  0.35197715  0.80324636     0.05100
C667        C  0.59025642  0.42814456  0.76619024     0.27500
C668        C  0.60607914  0.42223295  0.74143155    -0.12900
C669        C  0.62250656  0.44499741  0.73620937     0.05600
C670        C  0.62078966  0.47814250  0.74884185    -0.08900
C671        C  0.60569656  0.48254905  0.77701806     0.06400
C672        C  0.59095407  0.45742572  0.78556775    -0.13200
Br673      Br  0.60144464  0.38294866  0.83095649    -0.05300
Br674      Br  0.52078777  0.36432638  0.71785352     0.00300
Br675      Br  0.64911841  0.42440283  0.72395270     0.00800
Br676      Br  0.57062193  0.46351294  0.82267001    -0.03700
Br677      Br  0.56735534  0.32108480  0.84090205     0.00900
Br678      Br  0.55134924  0.42975473  0.71320634    -0.02900
Br679      Br  0.60594591  0.38134599  0.71570958    -0.03800
Br680      Br  0.60561523  0.01796213  0.80659273     0.00200
C681        C  0.84608274  0.24310820  0.75714029     0.01600
C682        C  0.83338470  0.26901038  0.77270767     0.04400
C683        C  0.82049089  0.26327466  0.80254001    -0.11700
C684        C  0.81722555  0.23140213  0.81480527     0.23700
C685        C  0.82865471  0.20577575  0.79972067    -0.12200
C686        C  0.84487918  0.21211743  0.77544941     0.05100
C687        C  0.80320837  0.22414944  0.84536138     0.27500
C688        C  0.81262162  0.21577500  0.87787129    -0.12900
C689        C  0.80028737  0.20170895  0.90455414     0.05600
C690        C  0.77827868  0.19647838  0.89934047    -0.08900
C691        C  0.76856698  0.20704101  0.86778794     0.06400
C692        C  0.78097929  0.22080939  0.84091948    -0.13200
Br693      Br  0.82205731  0.16112634  0.81313660    -0.05300
Br694      Br  0.83101626  0.31262701  0.75369674     0.00300
Br695      Br  0.81369184  0.18978268  0.94835145     0.00800
Br696      Br  0.76753734  0.23380543  0.79755974    -0.03700
Br697      Br  0.86717868  0.18036212  0.78041132     0.00900
Br698      Br  0.80633392  0.29884408  0.82639904    -0.02900
Br699      Br  0.84273934  0.22261169  0.88522393    -0.03800
Br700      Br  0.73850771  0.20013821  0.86004844     0.00200
C701        C  0.84086477  0.25160372  0.68979798     0.01600
C702        C  0.81831985  0.25454721  0.69651288     0.04400
C703        C  0.80466556  0.27127589  0.67310022    -0.11700
C704        C  0.81107024  0.27733838  0.63877634     0.23700
C705        C  0.83081664  0.26452029  0.62784881    -0.12200
C706        C  0.84576035  0.25183087  0.65284882     0.05100
C707        C  0.79648235  0.29470551  0.61348773     0.27500
C708        C  0.78532663  0.27678970  0.58766537    -0.12900
C709        C  0.77389331  0.29315820  0.56084609     0.05600
C710        C  0.77323326  0.32779036  0.55992572    -0.08900
C711        C  0.78208390  0.34541611  0.58839532     0.06400
C712        C  0.79354814  0.32901454  0.61503397    -0.13200
Br713      Br  0.83847552  0.26896091  0.57907567    -0.05300
Br714      Br  0.80279956  0.22499165  0.72628412     0.00300
Br715      Br  0.75954781  0.26751023  0.52561781     0.00800
Br716      Br  0.80376429  0.35401635  0.65450608    -0.03700
Br717      Br  0.87255008  0.23765950  0.63399856     0.00900
Br718      Br  0.77615957  0.28318575  0.68725796    -0.02900
Br719      Br  0.78506452  0.22959623  0.59018007    -0.03800
Br720      Br  0.77706925  0.39202771  0.59279404     0.00200
C721        C  0.16200230  0.25307568  0.80779725     0.01600
C722        C  0.18513594  0.25466745  0.80387686     0.04400
C723        C  0.19878692  0.26066959  0.83304533    -0.11700
C724        C  0.19055326  0.26807009  0.86601069     0.23700
C725        C  0.16857481  0.26774747  0.87084877    -0.12200
C726        C  0.15447196  0.26158155  0.84252572     0.05100
C727        C  0.20483411  0.28093275  0.89442134     0.27500
C728        C  0.21892078  0.26022391  0.91290146    -0.12900
C729        C  0.23370961  0.27342351  0.93719786     0.05600
C730        C  0.23240026  0.30697164  0.94723088    -0.08900
C731        C  0.21656512  0.32686940  0.93062450     0.06400
C732        C  0.20428787  0.31447131  0.90262357    -0.13200
Br733      Br  0.15802931  0.27545916  0.91788087    -0.05300
Br734      Br  0.20058396  0.25808398  0.76004709     0.00300
Br735      Br  0.25537218  0.24444998  0.95580406     0.00800
Br736      Br  0.18672849  0.34380481  0.87480475    -0.03700
Br737      Br  0.12491525  0.26314861  0.85545344     0.00900
Br738      Br  0.22957471  0.26182162  0.82790866    -0.02900
Br739      Br  0.21750481  0.21355672  0.90517964    -0.03800
Br740      Br  0.21011175  0.37099996  0.94563009     0.00200
C741        C  0.21072085  0.18762130  0.58202601     0.01600
C742        C  0.22118946  0.20666494  0.60816543     0.04400
C743        C  0.20978596  0.21860881  0.63724826    -0.11700
C744        C  0.18779794  0.21281202  0.64024991     0.23700
C745        C  0.17695155  0.19669796  0.61284554    -0.12200
C746        C  0.18819559  0.18475702  0.58358194     0.05100
C747        C  0.17643397  0.22211036  0.67319235     0.27500
C748        C  0.17603672  0.20017623  0.70107135    -0.12900
C749        C  0.16777653  0.20956764  0.73387505     0.05600
C750        C  0.15691779  0.24065060  0.73928980    -0.08900
C751        C  0.15649091  0.26198450  0.70855987     0.06400
C752        C  0.16689037  0.25285816  0.67695098    -0.13200
Br753      Br  0.14665804  0.18993242  0.61633394    -0.05300
Br754      Br  0.25113434  0.21701349  0.60545818     0.00300
Br755      Br  0.17571557  0.18003775  0.77110844     0.00800
Br756      Br  0.16752195  0.28172173  0.63660139    -0.03700
Br757      Br  0.17207912  0.16654499  0.54486276     0.00900
Br758      Br  0.22447219  0.24191321  0.67415871    -0.02900
Br759      Br  0.18768478  0.15664470  0.69374529    -0.03800
Br760      Br  0.14033829  0.30207035  0.70322101     0.00200
C761        C  0.12971360  0.27892931  0.77693140     0.01600
C762        C  0.13838231  0.31180431  0.78039793     0.04400
C763        C  0.12500596  0.33981268  0.78164823    -0.11700
C764        C  0.10318460  0.33708214  0.77516112     0.23700
C765        C  0.09422770  0.30620807  0.77106531    -0.12200
C766        C  0.10646174  0.27789920  0.77757581     0.05100
C767        C  0.08902141  0.36637946  0.77509220     0.27500
C768        C  0.07912018  0.37641194  0.80637102    -0.12900
C769        C  0.06354840  0.40129673  0.80564525     0.05600
C770        C  0.05805677  0.41660183  0.77372515    -0.08900
C771        C  0.06838478  0.40715789  0.74263291     0.06400
C772        C  0.08377507  0.38206739  0.74330091    -0.13200
Br773      Br  0.06413080  0.30317626  0.75939131    -0.05300
Br774      Br  0.16831110  0.32228738  0.77921966     0.00300
Br775      Br  0.04916998  0.41374453  0.84802774     0.00800
Br776      Br  0.09709494  0.36816066  0.70048469    -0.03700
Br777      Br  0.08848300  0.24438147  0.79811058     0.00900
Br778      Br  0.13638503  0.38303362  0.79068474    -0.02900
Br779      Br  0.08653521  0.35524600  0.84999315    -0.03800
Br780      Br  0.06079952  0.42791013  0.69884766     0.00200
C781        C  0.05562882  0.08267156  0.78166798     0.01600
C782        C  0.05352857  0.10861711  0.80578653     0.04400
C783        C  0.06916312  0.13319791  0.80765042    -0.11700
C784        C  0.08751286  0.13100337  0.78668582     0.23700
C785        C  0.09035919  0.10368723  0.76463497    -0.12200
C786        C  0.07417437  0.08023642  0.76118325     0.05100
C787        C  0.10272544  0.15884005  0.78469103     0.27500
C788        C  0.10231542  0.17890289  0.75514408    -0.12900
C789        C  0.11655166  0.20534808  0.75205197     0.05600
C790        C  0.13111021  0.21430615  0.78037643    -0.08900
C791        C  0.13204107  0.19119393  0.80960917     0.06400
C792        C  0.11772462  0.16440381  0.81128012    -0.13200
Br793      Br  0.11625507  0.09915930  0.73818534    -0.05300
Br794      Br  0.02917765  0.11044382  0.83614258     0.00300
Br795      Br  0.11190069  0.23091344  0.70989129     0.00800
Br796      Br  0.11850665  0.13353218  0.84999731    -0.03700
Br797      Br  0.07700997  0.04574770  0.72689606     0.00900
Br798      Br  0.06503649  0.17036903  0.83801703    -0.02900
Br799      Br  0.07999326  0.17170872  0.72027119    -0.03800
Br800      Br  0.15335069  0.18944896  0.84701328     0.00200
C801        C  0.94919155  0.08421054  0.72742385     0.01600
C802        C  0.94300805  0.09450227  0.69356026     0.04400
C803        C  0.92797223  0.12008149  0.68921945    -0.11700
C804        C  0.91878380  0.13537912  0.71875535     0.23700
C805        C  0.92530559  0.12504701  0.75263030    -0.12200
C806        C  0.94031067  0.09963153  0.75684527     0.05100
C807        C  0.90365982  0.16380512  0.71416121     0.27500
C808        C  0.91127527  0.19584844  0.71679738    -0.12900
C809        C  0.89756929  0.22278283  0.71098910     0.05600
C810        C  0.87469172  0.21906165  0.71158250    -0.08900
C811        C  0.86775164  0.18631334  0.70291128     0.06400
C812        C  0.88220671  0.15924902  0.70430718    -0.13200
Br813      Br  0.91470374  0.14619250  0.79389319    -0.05300
Br814      Br  0.95564676  0.07398610  0.65330517     0.00300
Br815      Br  0.91186684  0.25932032  0.68914307     0.00800
Br816      Br  0.87230063  0.11506450  0.69652192    -0.03700
Br817      Br  0.94912012  0.08593563  0.80327318     0.00900
Br818      Br  0.92067621  0.13523052  0.64278341    -0.02900
Br819      Br  0.94123168  0.20289157  0.72615090    -0.03800
Br820      Br  0.83882152  0.17577822  0.69069974     0.00200
C821        C  0.87252050  0.28195006  0.72681816     0.01600
C822        C  0.87167782  0.31157158  0.70550532     0.04400
C823        C  0.88573265  0.33828282  0.71122623    -0.11700
C824        C  0.90244056  0.33606684  0.73540978     0.23700
C825        C  0.90337156  0.30887276  0.75767968    -0.12200
C826        C  0.88786229  0.28367651  0.75545785     0.05100
C827        C  0.91866970  0.36302328  0.73758817     0.27500
C828        C  0.93255120  0.36895836  0.70925452    -0.12900
C829        C  0.94633550  0.39612895  0.70989942     0.05600
C830        C  0.94813234  0.41560485  0.74028930    -0.08900
C831        C  0.93484962  0.40908805  0.76902081     0.06400
C832        C  0.91935255  0.38424171  0.76684448    -0.13200
Br833      Br  0.92722918  0.30533160  0.79003772    -0.05300
Br834      Br  0.85150377  0.32177327  0.66958542     0.00300
Br835      Br  0.96286109  0.40684969  0.66912690     0.00800
Br836      Br  0.89834230  0.38052210  0.80314192    -0.03700
Br837      Br  0.88974822  0.25203276  0.79265933     0.00900
Br838      Br  0.88223821  0.37984356  0.68650855    -0.02900
Br839      Br  0.93281830  0.34003469  0.66928549    -0.03800
Br840      Br  0.93836204  0.43365610  0.81181096     0.00200
N841        N  0.00110181  0.94825509  0.76152516    -0.36400
N842        N  0.03517547  0.50125267  0.76856551    -0.56900
N843        N  0.00411344  0.55148828  0.75026376    -0.36400
N844        N  0.97189676  0.50099191  0.73680897    -0.56900
C845        C  0.01904836  0.92978951  0.76355100     0.27200
C846        C  0.98514830  0.92876069  0.74994606     0.27200
C847        C  0.02218650  0.56957674  0.75147705     0.27200
C848        C  0.98886448  0.56958081  0.73389071     0.27200
C849        C  0.04367630  0.97261137  0.78654612     0.35800
C850        C  0.04666041  0.52782314  0.77788041     0.35800
C851        C  0.95721479  0.97168401  0.73982126     0.35800
C852        C  0.95960737  0.52797975  0.73197499     0.35800
C853        C  0.01433648  0.89798652  0.75360950    -0.21600
C854        C  0.99291853  0.89718151  0.74572536    -0.21600
C855        C  0.01830174  0.59963976  0.73582046    -0.21600
C856        C  0.99730826  0.59970931  0.72494135    -0.21600
C857        C  0.06150192  0.98229827  0.80544924    -0.22700
C858        C  0.06534252  0.51812515  0.79458967    -0.22700
C859        C  0.93639377  0.98188730  0.73415901    -0.22700
C860        C  0.93840912  0.51895400  0.72934846    -0.22700
C861        C  0.03924947  0.94019880  0.77621970    -0.18000
C862        C  0.96365445  0.93852524  0.74421470    -0.18000
C863        C  0.96715526  0.56063934  0.72903338    -0.18000
C864        C  0.04177024  0.56040154  0.76789794    -0.18000
H865        H  0.02507499  0.87723525  0.75304621     0.14900
H866        H  0.98418221  0.87568023  0.73761302     0.14900
H867        H  0.02937050  0.61966398  0.73293423     0.14900
H868        H  0.98914095  0.61980502  0.71210673     0.14900
H869        H  0.07392530  0.96685635  0.81633300     0.13100
H870        H  0.07799097  0.53358047  0.80450088     0.13100
H871        H  0.92229573  0.96681422  0.73253329     0.13100
H872        H  0.92479995  0.53480389  0.72508186     0.13100
H873        H  0.99922402  0.97191858  0.77070767     0.26400
H874        H  0.00157273  0.52960387  0.76367896     0.26400
C875        C  0.14794777  0.75147070  0.77577474    -0.02200
C876        C  0.85671810  0.74732162  0.72007171    -0.02200
C877        C  0.63470365  0.50769476  0.73353625    -0.02200
N878        N  0.49144884  0.80396454  0.76978770    -0.36400
N879        N  0.52832111  0.76064614  0.76149935    -0.56900
N880        N  0.49995290  0.70508478  0.76083590    -0.36400
N881        N  0.46328511  0.74872755  0.77251704    -0.56900
C882        C  0.50739678  0.82508811  0.77714942     0.27200
C883        C  0.47291923  0.81906040  0.77782534     0.27200
C884        C  0.51910898  0.68964800  0.76089132     0.27200
C885        C  0.48514565  0.68325118  0.77149263     0.27200
C886        C  0.53800742  0.78998748  0.75850811     0.35800
C887        C  0.54226137  0.73783996  0.74990231     0.35800
C888        C  0.44847354  0.77246924  0.76759381     0.35800
C889        C  0.45318715  0.71987617  0.76813109     0.35800
C890        C  0.49886300  0.85393662  0.79024775    -0.21600
C891        C  0.47708813  0.85023255  0.79034155    -0.21600
C892        C  0.51637842  0.65739914  0.77108297    -0.21600
C893        C  0.49504761  0.65347250  0.77815226    -0.21600
C894        C  0.55835883  0.78573536  0.74545240    -0.22700
C895        C  0.56101812  0.75272260  0.73989269    -0.22700
C896        C  0.42880994  0.75867627  0.76053828    -0.22700
C897        C  0.43175336  0.72533357  0.76111425    -0.22700
C898        C  0.52913522  0.82043721  0.76880572    -0.18000
C899        C  0.45234463  0.80637013  0.77120634    -0.18000
C900        C  0.46274218  0.68863891  0.77238575    -0.18000
C901        C  0.53884666  0.70360687  0.75083724    -0.18000
H902        H  0.50739261  0.87583968  0.79778526     0.14900
H903        H  0.46561711  0.86856388  0.79821495     0.14900
H904        H  0.52850142  0.63863430  0.77333432     0.14900
H905        H  0.48759083  0.63097464  0.78642395     0.14900
H906        H  0.57010680  0.80445297  0.74057464     0.13100
H907        H  0.57525186  0.74097437  0.73017827     0.13100
H908        H  0.41387220  0.77129802  0.75598477     0.13100
H909        H  0.41951134  0.70716614  0.75680215     0.13100
H910        H  0.49285350  0.78250966  0.75545092     0.26400
H911        H  0.49683983  0.72802838  0.75032494     0.26400
C912        C  0.35512673  0.50308302  0.76273200    -0.02200
O913        O  0.29793580  0.85931792  0.98497491    -0.71500
O914        O  0.26738061  0.81198708  0.05492050    -0.71700
O915        O  0.26563478  0.81631729  0.98448423    -0.71600
O916        O  0.30018818  0.85562443  0.05600550    -0.71600
O917        O  0.27755005  0.89563389  0.05953691    -0.71600
O918        O  0.24310537  0.85588433  0.98942627    -0.71600
O919        O  0.24515304  0.85258583  0.05913350    -0.71500
O920        O  0.27533840  0.89914783  0.98932446    -0.71700
V921        V  0.28244022  0.83657232  0.02034660     1.35200
V922        V  0.26079488  0.87502364  0.02430420     1.35200
C923        C  0.29147014  0.88707809  0.97447032     0.77700
C924        C  0.25066554  0.82404768  0.06814013     0.77800
C925        C  0.24827213  0.82936973  0.97471798     0.77600
C926        C  0.29480562  0.88264394  0.06973752     0.77600
N927        N  0.99388285  0.94823301  0.26664911    -0.36400
N928        N  0.96635405  0.49607642  0.26196165    -0.56900
N929        N  0.99800962  0.54632434  0.25850828    -0.36400
N930        N  0.03134035  0.49640083  0.25465896    -0.56900
C931        C  0.97615154  0.93098048  0.25826728     0.27200
C932        C  0.01090919  0.93012816  0.25691661     0.27200
C933        C  0.97999558  0.56411947  0.25350232     0.27200
C934        C  0.01449809  0.56461303  0.24728808     0.27200
C935        C  0.94935860  0.97217236  0.27693163     0.35800
C936        C  0.95410543  0.52183712  0.27105921     0.35800
C937        C  0.03918195  0.97130297  0.26859128     0.35800
C938        C  0.04359288  0.52348214  0.25638339     0.35800
C939        C  0.98203960  0.90135622  0.24342548    -0.21600
C940        C  0.00395088  0.90082348  0.24257173    -0.21600
C941        C  0.98508989  0.59416555  0.23914502    -0.21600
C942        C  0.00684027  0.59467552  0.23568048    -0.21600
C943        C  0.92969932  0.98124916  0.28994032    -0.22700
C944        C  0.93455797  0.51109243  0.28298354    -0.22700
C945        C  0.05992290  0.98092430  0.27565272    -0.22700
C946        C  0.06455520  0.51469975  0.26337420    -0.22700
C947        C  0.95490886  0.94036586  0.26578119    -0.18000
C948        C  0.03254845  0.93851540  0.26281443    -0.18000
C949        C  0.03634268  0.55579562  0.24964120    -0.18000
C950        C  0.95927899  0.55469263  0.26372995    -0.18000
H951        H  0.97165731  0.88189053  0.23459274     0.14900
H952        H  0.01366793  0.88095285  0.23282862     0.14900
H953        H  0.97431238  0.61398316  0.23255900     0.14900
H954        H  0.01590569  0.61516988  0.22605445     0.14900
H955        H  0.91617200  0.96565957  0.29485393     0.13100
H956        H  0.92119366  0.52588249  0.29122987     0.13100
H957        H  0.07361403  0.96530680  0.28017288     0.13100
H958        H  0.07823260  0.53060991  0.26539754     0.13100
H959        H  0.99452196  0.96937347  0.28175297     0.26400
H960        H  0.99926290  0.52465954  0.27259663     0.26400
C961        C  0.14114140  0.74825328  0.24679348    -0.02200
C962        C  0.85356975  0.74528821  0.24177060    -0.02200
C963        C  0.64668932  0.50020778  0.21967855    -0.02200
C964        C  0.36267437  0.48642192  0.28498150    -0.02200
N965        N  0.50030169  0.79529466  0.24530933    -0.36400
N966        N  0.47036922  0.74061142  0.25763301    -0.56900
N967        N  0.50400249  0.69510408  0.24232138    -0.36400
N968        N  0.53373357  0.74934206  0.22973770    -0.56900
C969        C  0.48368100  0.81202454  0.25892452     0.27200
C970        C  0.51682713  0.81649645  0.24236192     0.27200
C971        C  0.48711680  0.67450153  0.24044250     0.27200
C972        C  0.52113647  0.67853693  0.23044979     0.27200
C973        C  0.45783541  0.76559299  0.26810184     0.35800
C974        C  0.45930390  0.71266373  0.26274341     0.35800
C975        C  0.54487592  0.77688222  0.22341981     0.35800
C976        C  0.54729256  0.72415709  0.22492583     0.35800
C977        C  0.48955170  0.84446613  0.26374385    -0.21600
C978        C  0.51040676  0.84720067  0.25356759    -0.21600
C979        C  0.49375510  0.64464379  0.22698608    -0.21600
C980        C  0.51525213  0.64696559  0.22145544    -0.21600
C981        C  0.43864452  0.75342176  0.28008787    -0.22700
C982        C  0.43966603  0.71994060  0.27703748    -0.22700
C983        C  0.56539948  0.76892614  0.21324507    -0.22700
C984        C  0.56706180  0.73560791  0.21500420    -0.22700
C985        C  0.46329926  0.79926316  0.26739035    -0.18000
C986        C  0.53764398  0.80910513  0.23014854    -0.18000
C987        C  0.54208130  0.69078524  0.22781041    -0.18000
C988        C  0.46620089  0.68091410  0.25269154    -0.18000
H989        H  0.47993093  0.86415060  0.27414732     0.14900
H990        H  0.51981934  0.86931002  0.25461884     0.14900
H991        H  0.48421044  0.62306494  0.22231097     0.14900
H992        H  0.52531893  0.62769035  0.21134124     0.14900
H993        H  0.42532691  0.76720347  0.29026514     0.13100
H994        H  0.42722708  0.70297310  0.28402138     0.13100
H995        H  0.57814057  0.78538200  0.20636206     0.13100
H996        H  0.58112614  0.72141872  0.20894008     0.13100
H997        H  0.49974570  0.77141631  0.23632486     0.26400
H998        H  0.50461850  0.71773285  0.25461405     0.26400
O999        O  0.71474385  0.65456794  0.93995340    -0.71500
O1000       O  0.74918276  0.68860870  0.01426246    -0.71700
O1001       O  0.74825197  0.69541548  0.94381749    -0.71600
O1002       O  0.71531639  0.64732808  0.00993923    -0.71600
O1003       O  0.73710391  0.60648056  0.00523197    -0.71600
O1004       O  0.76985822  0.65405676  0.93958683    -0.72000
O1005       O  0.77033923  0.64709011  0.00985352    -0.71500
O1006       O  0.73617022  0.61323546  0.93577568    -0.71700
V1007       V  0.73230558  0.67077683  0.97703939     1.35200
V1008       V  0.75297983  0.63113205  0.97262461     1.35200
C1009       C  0.71941782  0.62768898  0.92545528     0.77700
C1010       C  0.76567490  0.67361190  0.02501120     0.77800
C1011       C  0.76455314  0.68260758  0.93010083     0.77600
C1012       C  0.72036469  0.61828074  0.01830829     0.77600
O1013       O  0.21874235  0.64338683  0.54293850    -0.71500
O1014       O  0.24937609  0.59295888  0.47642875    -0.71700
O1015       O  0.24861759  0.59549654  0.54658328    -0.71600
O1016       O  0.21990029  0.64123275  0.47175640    -0.71600
O1017       O  0.24475751  0.67798296  0.47231665    -0.71600
O1018       O  0.27332801  0.63244137  0.54653729    -0.71600
O1019       O  0.27396845  0.62975463  0.47573270    -0.71500
O1020       O  0.24326071  0.68024510  0.54288149    -0.71700
V1021       V  0.23455683  0.61910753  0.50942418     1.35200
V1022       V  0.25835796  0.65437562  0.50940920     1.35200
C1023       C  0.22558050  0.67042339  0.55454626     0.77700
C1024       C  0.26710821  0.60233290  0.46498301     0.77800
C1025       C  0.26611246  0.60602793  0.55897328     0.77600
C1026       C  0.22765646  0.66726822  0.45905002     0.77600
O1027       O  0.76782952  0.87232513  0.52004300    -0.71500
O1028       O  0.74011797  0.92241845  0.44871155    -0.71700
O1029       O  0.73795645  0.91977367  0.51888142    -0.71600
O1030       O  0.77004455  0.87475980  0.44985150    -0.71600
O1031       O  0.74534843  0.83834962  0.44538303    -0.71600
O1032       O  0.71332191  0.88283580  0.51446746    -0.71600
O1033       O  0.71578414  0.88531275  0.44425867    -0.71500
O1034       O  0.74323998  0.83535805  0.51594287    -0.71700
V1035       V  0.75353274  0.89660518  0.48425107     1.35200
V1036       V  0.72990149  0.86118027  0.48016381     1.35200
C1037       C  0.76025133  0.84537465  0.53035148     0.77700
C1038       C  0.72316323  0.91243881  0.43417150     0.77800
C1039       C  0.72015895  0.90882770  0.52851318     0.77600
C1040       C  0.76314588  0.84893986  0.43548036     0.77600
C1041       C  0.34554619  0.49878750  0.31290928     0.01600
C1042       C  0.33317737  0.52798717  0.30513353     0.04400
C1043       C  0.31964520  0.54254886  0.33015985    -0.11700
C1044       C  0.31703320  0.52851664  0.36319626     0.23700
C1045       C  0.32772159  0.49935985  0.37135588    -0.12200
C1046       C  0.34290846  0.48569640  0.34814577     0.05100
C1047       C  0.30414704  0.54589983  0.39038603     0.27500
C1048       C  0.31404206  0.56801194  0.41368059    -0.12900
C1049       C  0.30215990  0.58470997  0.43917307     0.05600
C1050       C  0.27971595  0.58166419  0.44004599    -0.08900
C1051       C  0.26981408  0.55855717  0.41716771     0.06400
C1052       C  0.28210837  0.54052926  0.39294630    -0.13200
Br1053     Br  0.32052241  0.97618513  0.41346406    -0.05300
Br1054     Br  0.33284946  0.54888514  0.25971127     0.00300
Br1055     Br  0.31751932  0.60910513  0.47479725     0.00800
Br1056     Br  0.26893204  0.50816261  0.36297631    -0.03700
Br1057     Br  0.36344379  0.95952181  0.37152144     0.00900
Br1058     Br  0.30404395  0.58232906  0.31944204    -0.02900
Br1059     Br  0.34407329  0.57609981  0.41073138    -0.03800
Br1060     Br  0.23948488  0.55085935  0.41779084     0.00200
C1061       C  0.37749836  0.96175994  0.29801468     0.01600
C1062       C  0.36816749  0.92937382  0.29727638     0.04400
C1063       C  0.38090476  0.90079123  0.29642426    -0.11700
C1064       C  0.40304108  0.90308979  0.29483162     0.23700
C1065       C  0.41269055  0.93356455  0.29944719    -0.12200
C1066       C  0.40025632  0.96205487  0.30437363     0.05100
C1067       C  0.41645033  0.87348711  0.28888050     0.27500
C1068       C  0.42839023  0.85969994  0.31673180    -0.12900
C1069       C  0.44326440  0.83465750  0.31006116     0.05600
C1070       C  0.44624927  0.82339307  0.27555371    -0.08900
C1071       C  0.43354475  0.83589654  0.24808004     0.06400
C1072       C  0.41852425  0.86060558  0.25476605    -0.13200
Br1073     Br  0.44348432  0.93633318  0.29634780    -0.05300
Br1074     Br  0.33797921  0.92170789  0.30000872     0.00300
Br1075     Br  0.46001984  0.81630616  0.34780123     0.00800
Br1076     Br  0.40101348  0.87687482  0.21694910    -0.03700
Br1077     Br  0.41637189  0.99744528  0.32399321     0.00900
Br1078     Br  0.36828897  0.85764804  0.29700785    -0.02900
Br1079     Br  0.42457910  0.87565845  0.36383868    -0.03800
Br1080     Br  0.43730520  0.81970281  0.20098710     0.00200
C1081       C  0.37704662  0.51851127  0.27646007     0.01600
C1082       C  0.38411832  0.52760290  0.24179893     0.04400
C1083       C  0.40158758  0.54885525  0.23757715    -0.11700
C1084       C  0.40678938  0.57146521  0.26383606     0.23700
C1085       C  0.39570050  0.56999459  0.29538569    -0.12200
C1086       C  0.38274107  0.54266669  0.30316341     0.05100
C1087       C  0.42284653  0.59808925  0.25823376     0.27500
C1088       C  0.44183392  0.59863952  0.27835886    -0.12900
C1089       C  0.45511913  0.62638083  0.27813430     0.05600
C1090       C  0.45089257  0.65262014  0.25492786    -0.08900
C1091       C  0.43258823  0.65113514  0.23307028     0.06400
C1092       C  0.41820107  0.62475851  0.23584539    -0.13200
Br1093     Br  0.39899254  0.60580951  0.32847576    -0.05300
Br1094     Br  0.36731208  0.52439018  0.19895098     0.00300
Br1095     Br  0.47867017  0.62890357  0.31093008     0.00800
Br1096     Br  0.39158909  0.62604375  0.21017485    -0.03700
Br1097     Br  0.37666235  0.53967053  0.35269229     0.00900
Br1098     Br  0.41756891  0.54808600  0.19463035    -0.02900
Br1099     Br  0.44970602  0.56129315  0.30650826    -0.03800
Br1100     Br  0.42722516  0.68499083  0.19886059     0.00200
C1101       C  0.65898090  0.99299889  0.25088984     0.01600
C1102       C  0.66219498  0.51586594  0.28545818     0.04400
C1103       C  0.67283557  0.00342108  0.31180421    -0.11700
C1104       C  0.68144074  0.97194575  0.31364432     0.23700
C1105       C  0.67977566  0.95108623  0.28494351    -0.12200
C1106       C  0.66981929  0.96159354  0.25368228     0.05100
C1107       C  0.69181573  0.95997379  0.34647043     0.27500
C1108       C  0.71372308  0.96467739  0.35212437    -0.12900
C1109       C  0.72396519  0.95055599  0.38150104     0.05600
C1110       C  0.71224340  0.93136622  0.40559059    -0.08900
C1111       C  0.68985978  0.92893668  0.40095534     0.06400
C1112       C  0.67984884  0.94259113  0.37117731    -0.13200
Br1113     Br  0.69202012  0.90751360  0.28894944    -0.05300
Br1114     Br  0.64454127  0.55395702  0.29557756     0.00300
Br1115     Br  0.75414728  0.95736733  0.38702877     0.00800
Br1116     Br  0.64968383  0.93670379  0.36334569    -0.03700
Br1117     Br  0.67466721  0.93246503  0.21466786     0.00900
Br1118     Br  0.67392710  0.53226827  0.35867879    -0.02900
Br1119     Br  0.72969893  0.98978319  0.31856890    -0.03800
Br1120     Br  0.67225948  0.90875897  0.43609520     0.00200
C1121       C  0.70741116  0.59806709  0.04284288     0.01600
C1122       C  0.70604116  0.56367091  0.03799377     0.04400
C1123       C  0.69682459  0.54368401  0.06386656    -0.11700
C1124       C  0.68834608  0.55778173  0.09436151     0.23700
C1125       C  0.68790181  0.59213535  0.09773376    -0.12200
C1126       C  0.69723001  0.61223929  0.07213337     0.05100
C1127       C  0.67913973  0.53689885  0.12261198     0.27500
C1128       C  0.65739721  0.53090288  0.12294815    -0.12900
C1129       C  0.64775194  0.51646740  0.15239717     0.05600
C1130       C  0.65967280  0.50776605  0.18398095    -0.08900
C1131       C  0.68274132  0.51235471  0.18120749     0.06400
C1132       C  0.69187914  0.52567126  0.15031685    -0.13200
Br1133     Br  0.67440799  0.61175238  0.13775998    -0.05300
Br1134     Br  0.71510640  0.54369865  0.99467167     0.00300
Br1135     Br  0.61706456  0.01355390  0.14139493     0.00800
Br1136     Br  0.72242307  0.53136802  0.14567506    -0.03700
Br1137     Br  0.69586566  0.65904934  0.07821010     0.00900
Br1138     Br  0.69191949  0.99871900  0.05663159    -0.02900
Br1139     Br  0.64090047  0.54323843  0.08166881    -0.03800
Br1140     Br  0.70381113  0.50943633  0.21886309     0.00200
C1141       C  0.55982721  0.66693541  0.22696226     0.01600
C1142       C  0.56651325  0.65343133  0.19497619     0.04400
C1143       C  0.58270618  0.62974670  0.19483709    -0.11700
C1144       C  0.59219306  0.61971128  0.22666903     0.23700
C1145       C  0.58646196  0.63475070  0.25840276    -0.12200
C1146       C  0.57025653  0.65843318  0.25853606     0.05100
C1147       C  0.60590504  0.59033070  0.22700250     0.27500
C1148       C  0.59645226  0.55986366  0.23101802    -0.12900
C1149       C  0.60807083  0.53099352  0.22461382     0.05600
C1150       C  0.63131807  0.53169577  0.22241624    -0.08900
C1151       C  0.64040285  0.56433850  0.21969704     0.06400
C1152       C  0.62757122  0.59272732  0.22051681    -0.13200
Br1153     Br  0.60011863  0.62163151  0.30166442    -0.05300
Br1154     Br  0.55310561  0.66693916  0.15167850     0.00300
Br1155     Br  0.58635756  0.99910039  0.20659183     0.00800
Br1156     Br  0.63959737  0.63614106  0.21581792    -0.03700
Br1157     Br  0.56198244  0.67884376  0.30197746     0.00900
Br1158     Br  0.59137983  0.60993179  0.15131859    -0.02900
Br1159     Br  0.56648282  0.55860203  0.24365797    -0.03800
Br1160     Br  0.67053703  0.57372576  0.22192936     0.00200
C1161       C  0.62971992  0.96748033  0.21519966     0.01600
C1162       C  0.62871990  0.94378980  0.18663683     0.04400
C1163       C  0.61561562  0.91549039  0.18907628    -0.11700
C1164       C  0.60162099  0.91126130  0.21710532     0.23700
C1165       C  0.60219482  0.93334826  0.24492463    -0.12200
C1166       C  0.61717500  0.95897269  0.24577411     0.05100
C1167       C  0.58603985  0.88359283  0.21815225     0.27500
C1168       C  0.56797274  0.88341043  0.19578042    -0.12900
C1169       C  0.55235016  0.85889679  0.19923597     0.05600
C1170       C  0.55364348  0.83617023  0.22702157    -0.08900
C1171       C  0.57114469  0.83754559  0.25050347     0.06400
C1172       C  0.58786369  0.85966407  0.24471473    -0.13200
Br1173     Br  0.58002811  0.93056053  0.28024044    -0.05300
Br1174     Br  0.64578662  0.94458018  0.14427818     0.00300
Br1175     Br  0.52927313  0.85624179  0.16569224     0.00800
Br1176     Br  0.61321833  0.85760327  0.27370205    -0.03700
Br1177     Br  0.61578831  0.98426533  0.28841956     0.00900
Br1178     Br  0.61709628  0.88069382  0.15462550    -0.02900
Br1179     Br  0.56408360  0.91753417  0.16137115    -0.03800
Br1180     Br  0.57195456  0.80962531  0.29129330     0.00200
C1181       C  0.83785274  0.75454714  0.27343123     0.01600
C1182       C  0.81465655  0.75767377  0.27091504     0.04400
C1183       C  0.80273278  0.77118147  0.29881770    -0.11700
C1184       C  0.81269517  0.78134596  0.32973900     0.23700
C1185       C  0.83455412  0.77752712  0.33406563    -0.12200
C1186       C  0.84710714  0.76531848  0.30657234     0.05100
C1187       C  0.80020808  0.79838718  0.35710797     0.27500
C1188       C  0.80147089  0.83258158  0.36019400    -0.12900
C1189       C  0.79004999  0.84898107  0.38643404     0.05600
C1190       C  0.77559459  0.83153895  0.40789161    -0.08900
C1191       C  0.77326607  0.79724167  0.40251042     0.06400
C1192       C  0.78655478  0.78067261  0.37888451    -0.13200
Br1193     Br  0.84705775  0.78930877  0.37910647    -0.05300
Br1194     Br  0.79667022  0.75091488  0.22992669     0.00300
Br1195     Br  0.79416195  0.89560472  0.39075768     0.00800
Br1196     Br  0.78622307  0.73343241  0.37605578    -0.03700
Br1197     Br  0.87691909  0.76151044  0.31880219     0.00900
Br1198     Br  0.77215001  0.77900173  0.29461229    -0.02900
Br1199     Br  0.81864722  0.85696281  0.32754560    -0.03800
Br1200     Br  0.75160058  0.77183264  0.42543304     0.00200
C1201       C  0.84096424  0.73761245  0.20559533     0.01600
C1202       C  0.82953392  0.70682441  0.20175659     0.04400
C1203       C  0.81856952  0.69837838  0.17059125    -0.11700
C1204       C  0.81730422  0.72021560  0.14265314     0.23700
C1205       C  0.82842420  0.74972068  0.14432794    -0.12200
C1206       C  0.84131679  0.75769011  0.17390022     0.05100
C1207       C  0.80464820  0.71104623  0.11084119     0.27500
C1208       C  0.81375132  0.69081896  0.08519075    -0.12900
C1209       C  0.80122055  0.67845714  0.05734407     0.05600
C1210       C  0.77919879  0.68664018  0.05456061    -0.08900
C1211       C  0.77022309  0.70711032  0.08075362     0.06400
C1212       C  0.78298707  0.71951727  0.10828165    -0.13200
Br1213     Br  0.82644685  0.77840027  0.10394461    -0.05300
Br1214     Br  0.82427305  0.67655244  0.23940257     0.00300
Br1215     Br  0.81502138  0.64980156  0.02417547     0.00800
Br1216     Br  0.77071627  0.74769360  0.14337710    -0.03700
Br1217     Br  0.86147925  0.79236207  0.16331397     0.00900
Br1218     Br  0.80367268  0.65688296  0.16609172    -0.02900
Br1219     Br  0.84356730  0.67942017  0.08919521    -0.03800
Br1220     Br  0.74006392  0.71624453  0.08198328     0.00200
C1221       C  0.21742867  0.68443695  0.42869379     0.01600
C1222       C  0.20588368  0.71381927  0.43345325     0.04400
C1223       C  0.19555290  0.72914627  0.40464841    -0.11700
C1224       C  0.19687878  0.71542021  0.37081090     0.23700
C1225       C  0.20962975  0.68734808  0.36572010    -0.12200
C1226       C  0.21985426  0.67202620  0.39444933     0.05100
C1227       C  0.18234924  0.72667081  0.34181056     0.27500
C1228       C  0.16369153  0.70920493  0.33566992    -0.12900
C1229       C  0.15296515  0.71185833  0.30329577     0.05600
C1230       C  0.15572724  0.74031826  0.28086775    -0.08900
C1231       C  0.17430119  0.75980331  0.28966864     0.06400
C1232       C  0.18800076  0.75136294  0.31821136    -0.13200
Br1233     Br  0.21246532  0.66926980  0.31923437    -0.05300
Br1234     Br  0.20376997  0.73254950  0.47962772     0.00300
Br1235     Br  0.14252106  0.66913233  0.28940642     0.00800
Br1236     Br  0.21456941  0.77398204  0.32596643    -0.03700
Br1237     Br  0.23760573  0.63432543  0.38665980     0.00900
Br1238     Br  0.17886203  0.76823913  0.41142893    -0.02900
Br1239     Br  0.15426066  0.67823876  0.37076366    -0.03800
Br1240     Br  0.18135624  0.80011477  0.26621219     0.00200
C1241       C  0.04898428  0.91174452  0.26100817     0.01600
C1242       C  0.04929382  0.88642161  0.28626313     0.04400
C1243       C  0.06402395  0.86041609  0.28364714    -0.11700
C1244       C  0.07932444  0.86019924  0.25682814     0.23700
C1245       C  0.07922598  0.88569051  0.23186007    -0.12200
C1246       C  0.06379064  0.91080404  0.23336375     0.05100
C1247       C  0.09514370  0.83274747  0.25458115     0.27500
C1248       C  0.11220088  0.83068244  0.27839444    -0.12900
C1249       C  0.12550759  0.80257971  0.27964077     0.05600
C1250       C  0.12534948  0.77901242  0.25105801    -0.08900
C1251       C  0.10840046  0.78379996  0.22529276     0.06400
C1252       C  0.09268816  0.80827191  0.22931347    -0.13200
Br1253     Br  0.10023146  0.88619583  0.19537620    -0.05300
Br1254     Br  0.02961770  0.88734574  0.32478796     0.00300
Br1255     Br  0.13949537  0.79750331  0.32479408     0.00800
Br1256     Br  0.06758843  0.80904708  0.19939204    -0.03700
Br1257     Br  0.06234882  0.94304794  0.19644880     0.00900
Br1258     Br  0.06287983  0.82436065  0.31622283    -0.02900
Br1259     Br  0.11711725  0.86730303  0.30965090    -0.03800
Br1260     Br  0.10684638  0.76093380  0.18092159     0.00200
C1261       C  0.12487961  0.71859508  0.24048846     0.01600
C1262       C  0.10659481  0.71547848  0.26320814     0.04400
C1263       C  0.09085293  0.69176480  0.25702910    -0.11700
C1264       C  0.09553812  0.66423199  0.23677879     0.23700
C1265       C  0.11377303  0.66495782  0.21570604    -0.12200
C1266       C  0.12619127  0.69381075  0.21331863     0.05100
C1267       C  0.08159026  0.63461359  0.23915810     0.27500
C1268       C  0.07857816  0.61900019  0.27192685    -0.12900
C1269       C  0.06308236  0.59454104  0.27547696     0.05600
C1270       C  0.05248791  0.58220673  0.24566432    -0.08900
C1271       C  0.05669568  0.59575472  0.21247510     0.06400
C1272       C  0.07002901  0.62327282  0.20959864    -0.13200
Br1273     Br  0.12283915  0.62548855  0.19210128    -0.05300
Br1274     Br  0.10312281  0.73829710  0.30717343     0.00300
Br1275     Br  0.05565313  0.57880432  0.32152221     0.00800
Br1276     Br  0.07083983  0.64686262  0.16585095    -0.03700
Br1277     Br  0.14100148  0.69750763  0.16923684     0.00900
Br1278     Br  0.06298019  0.69613872  0.27792313    -0.02900
Br1279     Br  0.09533123  0.63082250  0.31259018    -0.03800
Br1280     Br  0.04379040  0.57691072  0.17108066     0.00200
C1281       C  0.94192333  0.57987177  0.26429107     0.01600
C1282       C  0.92436975  0.57730839  0.24100638     0.04400
C1283       C  0.90755017  0.59995609  0.24282191    -0.11700
C1284       C  0.90960127  0.62816337  0.26386234     0.23700
C1285       C  0.92748329  0.63150004  0.28623927    -0.12200
C1286       C  0.94298742  0.60656435  0.28780622     0.05100
C1287       C  0.89442464  0.65592114  0.25877433     0.27500
C1288       C  0.89462045  0.67311238  0.22719907    -0.12900
C1289       C  0.88061272  0.69962899  0.22133371     0.05600
C1290       C  0.86705346  0.71230147  0.24886550    -0.08900
C1291       C  0.86593275  0.69170987  0.28019712     0.06400
C1292       C  0.87981348  0.66448896  0.28464118    -0.13200
Br1293     Br  0.93141094  0.67095271  0.31334566    -0.05300
Br1294     Br  0.92413248  0.54480164  0.20423292     0.00300
Br1295     Br  0.88440241  0.72010027  0.17621718     0.00800
Br1296     Br  0.87873402  0.63705621  0.32617231    -0.03700
Br1297     Br  0.96579199  0.60931039  0.32193800     0.00900
Br1298     Br  0.88198893  0.59322183  0.21523833    -0.02900
Br1299     Br  0.91658607  0.66241427  0.19330171    -0.03800
Br1300     Br  0.84419652  0.69334278  0.31649953     0.00200
C1301       C  0.93751400  0.91589647  0.26073849     0.01600
C1302       C  0.93016724  0.89753175  0.28939695     0.04400
C1303       C  0.91455800  0.87329690  0.28426440    -0.11700
C1304       C  0.90638080  0.86698630  0.25036227     0.23700
C1305       C  0.91304974  0.88627962  0.22195452    -0.12200
C1306       C  0.92849089  0.91079712  0.22715890     0.05100
C1307       C  0.89322075  0.83719747  0.24411812     0.27500
C1308       C  0.90341339  0.80716480  0.23987626    -0.12900
C1309       C  0.89192336  0.77755498  0.24197667     0.05600
C1310       C  0.86863754  0.77729362  0.23972852    -0.08900
C1311       C  0.85888834  0.80972424  0.23972850     0.06400
C1312       C  0.87106058  0.83851370  0.24435861    -0.13200
Br1313     Br  0.90173420  0.87780419  0.17570189    -0.05300
Br1314     Br  0.94198326  0.90507137  0.33551516     0.00300
Br1315     Br  0.91100440  0.74265426  0.25702825     0.00800
Br1316     Br  0.85758708  0.88085702  0.24995826    -0.03700
Br1317     Br  0.93782882  0.93679163  0.18811983     0.00900
Br1318     Br  0.90490147  0.84771008  0.32343478    -0.02900
Br1319     Br  0.93412408  0.80750965  0.23351528    -0.03800
Br1320     Br  0.82910723  0.81802981  0.22956070     0.00200
C1321       C  0.15747456  0.75485027  0.21506350     0.01600
C1322       C  0.15728605  0.78409691  0.19299519     0.04400
C1323       C  0.17101031  0.78702732  0.16411342    -0.11700
C1324       C  0.18906189  0.76732133  0.16164163     0.23700
C1325       C  0.19140194  0.74067280  0.18424093    -0.12200
C1326       C  0.17555537  0.73331186  0.20926884     0.05100
C1327       C  0.20678372  0.77775146  0.13833189     0.27500
C1328       C  0.20670648  0.76937059  0.10252064    -0.12900
C1329       C  0.22183183  0.78319731  0.07983280     0.05600
C1330       C  0.23721254  0.80537500  0.09278767    -0.08900
C1331       C  0.23767015  0.81289173  0.12878825     0.06400
C1332       C  0.22260542  0.79906106  0.15147591    -0.13200
Br1333     Br  0.21680505  0.71409783  0.17991763    -0.05300
Br1334     Br  0.14532481  0.82678072  0.20416427     0.00300
Br1335     Br  0.22033340  0.77365181  0.03054169     0.00800
Br1336     Br  0.22295330  0.81074410  0.20041049    -0.03700
Br1337     Br  0.18004496  0.69240557  0.23350934     0.00900
Br1338     Br  0.16654474  0.82078660  0.12890954    -0.02900
Br1339     Br  0.18498688  0.74054576  0.08436845    -0.03800
Br1340     Br  0.25832591  0.84345809  0.14677880     0.00200
C1341       C  0.35280232  0.97992313  0.24961052     0.01600
C1342       C  0.36620458  0.96543887  0.22259441     0.04400
C1343       C  0.35754775  0.95156925  0.19160433    -0.11700
C1344       C  0.33567100  0.95122578  0.18549059     0.23700
C1345       C  0.32207630  0.96555903  0.20984388    -0.12200
C1346       C  0.32990991  0.97770396  0.24237658     0.05100
C1347       C  0.32675268  0.93326576  0.15447245     0.27500
C1348       C  0.32147039  0.95004039  0.12335034    -0.12900
C1349       C  0.31173052  0.93324409  0.09515532     0.05600
C1350       C  0.30795256  0.89915638  0.09729079    -0.08900
C1351       C  0.31531619  0.88189678  0.12716362     0.06400
C1352       C  0.32383784  0.89909024  0.15614417    -0.13200
Br1353     Br  0.29191697  0.96684290  0.19796415    -0.05300
Br1354     Br  0.39713226  0.96479300  0.22378470     0.00300
Br1355     Br  0.30462907  0.95687430  0.05280386     0.00800
Br1356     Br  0.33093391  0.87606789  0.19887058    -0.03700
Br1357     Br  0.30677582  0.98342762  0.27551665     0.00900
Br1358     Br  0.37562157  0.93355509  0.15534731    -0.02900
Br1359     Br  0.32772736  0.48402001  0.12214673    -0.03800
Br1360     Br  0.31391519  0.83479446  0.12890279     0.00200
C1361       C  0.30194484  0.90469079  0.94474297     0.01600
C1362       C  0.32432738  0.90363654  0.94026630     0.04400
C1363       C  0.33382656  0.91919824  0.91121376    -0.11700
C1364       C  0.32122906  0.93637600  0.88660651     0.23700
C1365       C  0.29908251  0.93847265  0.89159932    -0.12200
C1366       C  0.28945886  0.92254878  0.92009057     0.05100
C1367       C  0.33084448  0.95250784  0.85523732     0.27500
C1368       C  0.33543489  0.98600259  0.85596777    -0.12900
C1369       C  0.34050613  0.00312576  0.82481147     0.05600
C1370       C  0.34280377  0.98614660  0.79161886    -0.08900
C1371       C  0.33438628  0.95337849  0.79155281     0.06400
C1372       C  0.33092124  0.93614354  0.82303693    -0.13200
Br1373     Br  0.28182704  0.96361136  0.85908285    -0.05300
Br1374     Br  0.34239550  0.88272791  0.97481933     0.00300
Br1375     Br  0.33729707  0.55135824  0.83325212     0.00800
Br1376     Br  0.32427848  0.88995040  0.82197968    -0.03700
Br1377     Br  0.25886359  0.92445914  0.92340402     0.00900
Br1378     Br  0.36420472  0.91771075  0.90522545    -0.02900
Br1379     Br  0.32707729  0.50909162  0.90252502    -0.03800
Br1380     Br  0.31790523  0.93596984  0.75297697     0.00200
C1381       C  0.34007581  0.51346462  0.72965860     0.01600
C1382       C  0.31695424  0.51579499  0.73033413     0.04400
C1383       C  0.30488183  0.52541083  0.70015077    -0.11700
C1384       C  0.31467002  0.53885577  0.67058009     0.23700
C1385       C  0.33695555  0.53873470  0.66954224    -0.12200
C1386       C  0.34938018  0.52507738  0.69734824     0.05100
C1387       C  0.30159886  0.55546018  0.64187001     0.27500
C1388       C  0.29884225  0.54083807  0.60846396    -0.12900
C1389       C  0.28758837  0.55743633  0.58128387     0.05600
C1390       C  0.27793106  0.58815541  0.58753046    -0.08900
C1391       C  0.28015689  0.60232679  0.62105025     0.06400
C1392       C  0.29223304  0.58656895  0.64766338    -0.13200
Br1393     Br  0.35049745  0.55908116  0.62966914    -0.05300
Br1394     Br  0.29968452  0.01304246  0.77534930     0.00300
Br1395     Br  0.28640725  0.53898589  0.53478333     0.00800
Br1396     Br  0.29616587  0.60838082  0.69193614    -0.03700
Br1397     Br  0.37940556  0.52475814  0.68891735     0.00900
Br1398     Br  0.27416989  0.52168603  0.69923273    -0.02900
Br1399     Br  0.31032722  0.49779858  0.60004286    -0.03800
Br1400     Br  0.26588590  0.64306147  0.63095657     0.00200
C1401       C  0.43451355  0.83022886  0.76549584     0.01600
C1402       C  0.42140378  0.84034667  0.79330698     0.04400
C1403       C  0.40640691  0.86580109  0.78816002    -0.11700
C1404       C  0.40451820  0.88139786  0.75527255     0.23700
C1405       C  0.41710945  0.87030801  0.72717247    -0.12200
C1406       C  0.43181936  0.84461942  0.73219328     0.05100
C1407       C  0.39216791  0.91259399  0.75151339     0.27500
C1408       C  0.37282230  0.91404882  0.73268033    -0.12900
C1409       C  0.36298817  0.94470046  0.72565780     0.05600
C1410       C  0.37032737  0.97377608  0.74268948    -0.08900
C1411       C  0.39257714  0.97213175  0.75130076     0.06400
C1412       C  0.40228398  0.94207428  0.75995001    -0.13200
Br1413     Br  0.41550446  0.89213931  0.68239785    -0.05300
Br1414     Br  0.42481351  0.82037123  0.83873835     0.00300
Br1415     Br  0.34618106  0.94701518  0.68294811     0.00800
Br1416     Br  0.43063959  0.94143798  0.78029262    -0.03700
Br1417     Br  0.44901151  0.82975944  0.69364969     0.00900
Br1418     Br  0.38929147  0.88084030  0.82654701    -0.02900
Br1419     Br  0.36029473  0.87416652  0.71520987    -0.03800
Br1420     Br  0.41460034  0.50707704  0.74786116     0.00200
C1421       C  0.44815600  0.66001662  0.77694788     0.01600
C1422       C  0.43604570  0.65686562  0.80776742     0.04400
C1423       C  0.42015015  0.63265386  0.81015801    -0.11700
C1424       C  0.41692002  0.61021253  0.78244103     0.23700
C1425       C  0.42944013  0.61301117  0.75193949    -0.12200
C1426       C  0.44475130  0.63796594  0.74907400     0.05100
C1427       C  0.39914661  0.58577927  0.78369118     0.27500
C1428       C  0.40004635  0.55814605  0.80568211    -0.12900
C1429       C  0.38423352  0.53337756  0.80318774     0.05600
C1430       C  0.36802659  0.53480907  0.77603574    -0.08900
C1431       C  0.36461913  0.56711910  0.76184890     0.06400
C1432       C  0.38067527  0.59111221  0.76367418    -0.13200
Br1433     Br  0.42478080  0.58415782  0.71269113    -0.05300
Br1434     Br  0.44091910  0.68642831  0.84646017     0.00300
Br1435     Br  0.38906354  0.99468638  0.82741059     0.00800
Br1436     Br  0.37700517  0.63268015  0.73992241    -0.03700
Br1437     Br  0.46006752  0.64340545  0.70582802     0.00900
Br1438     Br  0.40161215  0.63208830  0.85018356    -0.02900
Br1439     Br  0.42455914  0.55222076  0.83607504    -0.03800
Br1440     Br  0.33676495  0.58445807  0.75050865     0.00200
C1441       C  0.70560093  0.61269472  0.89769041     0.01600
C1442       C  0.68307052  0.61605600  0.89822336     0.04400
C1443       C  0.67025830  0.59858072  0.87404102    -0.11700
C1444       C  0.67968176  0.57783903  0.84915616     0.23700
C1445       C  0.70201818  0.57506844  0.84797954    -0.12200
C1446       C  0.71491595  0.59290391  0.87143242     0.05100
C1447       C  0.66656590  0.56060274  0.82212163     0.27500
C1448       C  0.66046322  0.52800268  0.82707473    -0.12900
C1449       C  0.65205935  0.50927741  0.79884718     0.05600
C1450       C  0.64867528  0.52382811  0.76448734    -0.08900
C1451       C  0.65884443  0.55501442  0.75995087     0.06400
C1452       C  0.66473910  0.57441972  0.78880916    -0.13200
Br1453     Br  0.71502956  0.54658085  0.81383762    -0.05300
Br1454     Br  0.66916548  0.64393421  0.93195739     0.00300
Br1455     Br  0.65213846  0.95905097  0.80472107     0.00800
Br1456     Br  0.67311066  0.61951105  0.78205093    -0.03700
Br1457     Br  0.74542384  0.59184245  0.86506257     0.00900
Br1458     Br  0.63967623  0.60248211  0.87497841    -0.02900
Br1459     Br  0.66808804  0.00373184  0.86924064    -0.03800
Br1460     Br  0.67481304  0.56612014  0.71872415     0.00200
C1461       C  0.70789362  0.92524633  0.55642422     0.01600
C1462       C  0.70302389  0.95899349  0.55448187     0.04400
C1463       C  0.69139432  0.97419891  0.58151076    -0.11700
C1464       C  0.68476842  0.95583690  0.61067354     0.23700
C1465       C  0.68977610  0.92220383  0.61255128    -0.12200
C1466       C  0.70110143  0.90691709  0.58549638     0.05100
C1467       C  0.67246532  0.97141412  0.63957064     0.27500
C1468       C  0.68297397  0.98172256  0.66999711    -0.12900
C1469       C  0.67144382  0.98972566  0.70054018     0.05600
C1470       C  0.64838538  0.99318523  0.69966969    -0.08900
C1471       C  0.63831728  0.98229331  0.66754252     0.06400
C1472       C  0.65025239  0.97159912  0.63838992    -0.13200
Br1473     Br  0.68139668  0.89681028  0.65251860    -0.05300
Br1474     Br  0.71131835  0.98407928  0.51405607     0.00300
Br1475     Br  0.68891465  0.98664719  0.74255922     0.00800
Br1476     Br  0.63633602  0.95620940  0.59593305    -0.03700
Br1477     Br  0.70800514  0.86088320  0.58926970     0.00900
Br1478     Br  0.68440171  0.02009726  0.57877452    -0.02900
Br1479     Br  0.71384318  0.98270547  0.66970181    -0.03800
Br1480     Br  0.61021366  0.48250983  0.66073372     0.00200
C1481       C  0.61891105  0.53626273  0.71877602     0.01600
C1482       C  0.62675879  0.56446254  0.70093283     0.04400
C1483       C  0.61807123  0.59586271  0.70744860    -0.11700
C1484       C  0.59845547  0.59894673  0.72445739     0.23700
C1485       C  0.58734299  0.57029306  0.73260941    -0.12200
C1486       C  0.59666841  0.53923787  0.72694996     0.05100
C1487       C  0.58743362  0.63126050  0.72873372     0.27500
C1488       C  0.58650952  0.64597044  0.76210588    -0.12900
C1489       C  0.57125300  0.67053468  0.76907979     0.05600
C1490       C  0.55702831  0.68100358  0.74249754    -0.08900
C1491       C  0.55952410  0.66881791  0.70816664     0.06400
C1492       C  0.57454761  0.64387357  0.70133239    -0.13200
Br1493     Br  0.55867480  0.57375540  0.75056117    -0.05300
Br1494     Br  0.64022553  0.56013013  0.65578117     0.00300
Br1495     Br  0.56906838  0.68877663  0.81545571     0.00800
Br1496     Br  0.57660637  0.62555882  0.65488618    -0.03700
Br1497     Br  0.57471241  0.00359385  0.71921084     0.00900
Br1498     Br  0.63256110  0.63438028  0.69124125    -0.02900
Br1499     Br  0.60562265  0.63110321  0.79850967    -0.03800
Br1500     Br  0.54186015  0.68576825  0.67075734     0.00200
C1501       C  0.54326928  0.84966774  0.76911866     0.01600
C1502       C  0.54333809  0.87083960  0.74005851     0.04400
C1503       C  0.55774491  0.89706181  0.73891652    -0.11700
C1504       C  0.57226327  0.90232481  0.76687642     0.23700
C1505       C  0.57175467  0.88156240  0.79643086    -0.12200
C1506       C  0.55712263  0.85553310  0.79766787     0.05100
C1507       C  0.58971152  0.92673300  0.76298500     0.27500
C1508       C  0.60697279  0.91912774  0.74154875    -0.12900
C1509       C  0.62316108  0.94221342  0.73581900     0.05600
C1510       C  0.62101274  0.97551749  0.74783756    -0.08900
C1511       C  0.60588021  0.97997500  0.77580111     0.06400
C1512       C  0.58988638  0.95626385  0.78185350    -0.13200
Br1513     Br  0.59207394  0.88731237  0.83414017    -0.05300
Br1514     Br  0.52424515  0.86286251  0.70104096     0.00300
Br1515     Br  0.64984480  0.92285439  0.72186110     0.00800
Br1516     Br  0.56666161  0.96568199  0.81320048    -0.03700
Br1517     Br  0.55620911  0.82736071  0.83811063     0.00900
Br1518     Br  0.55844027  0.92426760  0.69774988    -0.02900
Br1519     Br  0.60875057  0.87571019  0.72113824    -0.03800
Br1520     Br  0.60384102  0.52233729  0.80488250     0.00200
C1521       C  0.84424605  0.74009881  0.75624531     0.01600
C1522       C  0.83116831  0.76533647  0.77227159     0.04400
C1523       C  0.81900202  0.75925490  0.80274022    -0.11700
C1524       C  0.81641836  0.72743087  0.81526851     0.23700
C1525       C  0.82827694  0.70220506  0.80025616    -0.12200
C1526       C  0.84386551  0.70895281  0.77471806     0.05100
C1527       C  0.80234893  0.72043322  0.84586233     0.27500
C1528       C  0.81140346  0.71622468  0.87952805    -0.12900
C1529       C  0.79860108  0.70658444  0.90781621     0.05600
C1530       C  0.77685163  0.69964346  0.90251935    -0.08900
C1531       C  0.76747267  0.70602793  0.86950711     0.06400
C1532       C  0.78013643  0.71664774  0.84136185    -0.13200
Br1533     Br  0.82304204  0.65771034  0.81571790    -0.05300
Br1534     Br  0.82681167  0.80842345  0.75305401     0.00300
Br1535     Br  0.81051351  0.70503471  0.95432975     0.00800
Br1536     Br  0.76699833  0.72518377  0.79654702    -0.03700
Br1537     Br  0.86598096  0.67642509  0.77615617     0.00900
Br1538     Br  0.80501014  0.79444157  0.82764387    -0.02900
Br1539     Br  0.84151782  0.72303456  0.88665215    -0.03800
Br1540     Br  0.73738207  0.69896719  0.86243724     0.00200
C1541       C  0.83916183  0.75018775  0.68862051     0.01600
C1542       C  0.81635548  0.75031228  0.69430294     0.04400
C1543       C  0.80215876  0.76560796  0.67035064    -0.11700
C1544       C  0.80905703  0.77494403  0.63712013     0.23700
C1545       C  0.82973220  0.76567779  0.62698480    -0.12200
C1546       C  0.84456969  0.75272721  0.65194576     0.05100
C1547       C  0.79424754  0.79221138  0.61190714     0.27500
C1548       C  0.78581942  0.77538285  0.58264780    -0.12900
C1549       C  0.77500773  0.79260715  0.55577272     0.05600
C1550       C  0.77097961  0.82652416  0.55904669    -0.08900
C1551       C  0.77734534  0.84261761  0.59016035     0.06400
C1552       C  0.78899711  0.82568155  0.61630819    -0.13200
Br1553     Br  0.83858799  0.77509540  0.57955943    -0.05300
Br1554     Br  0.80190560  0.72040486  0.72521396     0.00300
Br1555     Br  0.76749914  0.76982272  0.51340675     0.00800
Br1556     Br  0.79679618  0.84858934  0.65860969    -0.03700
Br1557     Br  0.87147192  0.73948811  0.63285186     0.00900
Br1558     Br  0.77240370  0.77145130  0.68183791    -0.02900
Br1559     Br  0.78851122  0.72836350  0.58010223    -0.03800
Br1560     Br  0.76935210  0.88778300  0.59779964     0.00200
C1561       C  0.16510241  0.75818650  0.80694540     0.01600
C1562       C  0.18820471  0.76100487  0.80224544     0.04400
C1563       C  0.20209436  0.76759086  0.83099248    -0.11700
C1564       C  0.19413706  0.77377182  0.86436128     0.23700
C1565       C  0.17229043  0.77222550  0.86994123    -0.12200
C1566       C  0.15792755  0.76662962  0.84186358     0.05100
C1567       C  0.20830512  0.78732884  0.89246941     0.27500
C1568       C  0.22214608  0.76705886  0.91192038    -0.12900
C1569       C  0.23588806  0.78062985  0.93761316     0.05600
C1570       C  0.23430607  0.81444365  0.94668716    -0.08900
C1571       C  0.21895337  0.83398789  0.92848651     0.06400
C1572       C  0.20730251  0.82093308  0.90014278    -0.13200
Br1573     Br  0.16235058  0.77774545  0.91766745    -0.05300
Br1574     Br  0.20318561  0.76566458  0.75798208     0.00300
Br1575     Br  0.25602937  0.75148958  0.96032959     0.00800
Br1576     Br  0.18983914  0.84939067  0.87117209    -0.03700
Br1577     Br  0.12855867  0.77027871  0.85525447     0.00900
Br1578     Br  0.23273773  0.77127288  0.82498702    -0.02900
Br1579     Br  0.22175336  0.72043997  0.90353737    -0.03800
Br1580     Br  0.21221020  0.87848755  0.94185588     0.00200
C1581       C  0.21335057  0.68901832  0.58206944     0.01600
C1582       C  0.22370381  0.71080955  0.60578161     0.04400
C1583       C  0.21285518  0.72298764  0.63540563    -0.11700
C1584       C  0.19137720  0.71497290  0.64110901     0.23700
C1585       C  0.18044708  0.69602162  0.61600702    -0.12200
C1586       C  0.19118044  0.68344498  0.58650511     0.05100
C1587       C  0.18051460  0.72525899  0.67426123     0.27500
C1588       C  0.18077727  0.70436562  0.70311028    -0.12900
C1589       C  0.17160389  0.71396190  0.73520929     0.05600
C1590       C  0.15997992  0.74457202  0.73924406    -0.08900
C1591       C  0.15963184  0.76527920  0.70810793     0.06400
C1592       C  0.17025040  0.75561450  0.67686863    -0.13200
Br1593     Br  0.15065777  0.68674706  0.62284461    -0.05300
Br1594     Br  0.25265207  0.72501991  0.59868660     0.00300
Br1595     Br  0.17941003  0.68580440  0.77377416     0.00800
Br1596     Br  0.17051382  0.78340695  0.63569915    -0.03700
Br1597     Br  0.17458921  0.66053387  0.55136629     0.00900
Br1598     Br  0.22761565  0.74996019  0.66923013    -0.02900
Br1599     Br  0.19486924  0.66223628  0.69829297    -0.03800
Br1600     Br  0.14371734  0.80557680  0.70240323     0.00200
C1601       C  0.13230918  0.78311696  0.77620453     0.01600
C1602       C  0.14042784  0.81628309  0.78004666     0.04400
C1603       C  0.12650208  0.84357585  0.78284146    -0.11700
C1604       C  0.10478445  0.84017703  0.77552143     0.23700
C1605       C  0.09661057  0.80907812  0.76938547    -0.12200
C1606       C  0.10911014  0.78135647  0.77676576     0.05100
C1607       C  0.08984185  0.86851955  0.77727672     0.27500
C1608       C  0.07702489  0.87284790  0.80714128    -0.12900
C1609       C  0.06066463  0.89648642  0.80704339     0.05600
C1610       C  0.05714071  0.91609445  0.77722963    -0.08900
C1611       C  0.07062059  0.91290193  0.74804889     0.06400
C1612       C  0.08686875  0.88906542  0.74800262    -0.13200
Br1613     Br  0.06706949  0.80452713  0.75508560    -0.05300
Br1614     Br  0.17008448  0.82818769  0.77825857     0.00300
Br1615     Br  0.04284869  0.90194090  0.84747805     0.00800
Br1616     Br  0.10459786  0.88366023  0.70744011    -0.03700
Br1617     Br  0.09161464  0.74893238  0.80033219     0.00900
Br1618     Br  0.13690306  0.88633431  0.79635478    -0.02900
Br1619     Br  0.08163138  0.84573732  0.84788513    -0.03800
Br1620     Br  0.06645851  0.94084961  0.70783919     0.00200
C1621       C  0.05864487  0.58592223  0.77319214     0.01600
C1622       C  0.05635130  0.61019436  0.79926688     0.04400
C1623       C  0.07197332  0.63467018  0.80357145    -0.11700
C1624       C  0.09036161  0.63444145  0.78258502     0.23700
C1625       C  0.09325207  0.60902494  0.75804920    -0.12200
C1626       C  0.07727454  0.58539472  0.75272654     0.05100
C1627       C  0.10519840  0.66302714  0.78240330     0.27500
C1628       C  0.10395133  0.68503804  0.75462498    -0.12900
C1629       C  0.11880290  0.71066802  0.75143074     0.05600
C1630       C  0.13372419  0.71877570  0.77959724    -0.08900
C1631       C  0.13447676  0.69511741  0.80831482     0.06400
C1632       C  0.12079608  0.66734313  0.80838894    -0.13200
Br1633     Br  0.11902143  0.60740019  0.73092630    -0.05300
Br1634     Br  0.03173164  0.60985841  0.82907575     0.00300
Br1635     Br  0.11473199  0.73589631  0.70897056     0.00800
Br1636     Br  0.12327044  0.63349842  0.84386536    -0.03700
Br1637     Br  0.08061254  0.55309275  0.71626508     0.00900
Br1638     Br  0.06783696  0.66914261  0.83737511    -0.02900
Br1639     Br  0.07971128  0.68162454  0.72269701    -0.03800
Br1640     Br  0.15429196  0.69484181  0.84772760     0.00200
C1641       C  0.95112412  0.58756249  0.72314544     0.01600
C1642       C  0.94495709  0.59753230  0.68911585     0.04400
C1643       C  0.92963190  0.62272294  0.68436146    -0.11700
C1644       C  0.92025340  0.63819786  0.71364958     0.23700
C1645       C  0.92712755  0.62879264  0.74763991    -0.12200
C1646       C  0.94215481  0.60340252  0.75228334     0.05100
C1647       C  0.90441632  0.66578653  0.70894245     0.27500
C1648       C  0.91110890  0.69823966  0.71229501    -0.12900
C1649       C  0.89646420  0.72432761  0.70851389     0.05600
C1650       C  0.87370708  0.71894941  0.70975640    -0.08900
C1651       C  0.86772667  0.68612889  0.69963845     0.06400
C1652       C  0.88300332  0.66008152  0.69950132    -0.13200
Br1653     Br  0.91706895  0.65164427  0.78834160    -0.05300
Br1654     Br  0.95797410  0.57705316  0.64916651     0.00300
Br1655     Br  0.90935761  0.76273886  0.68824852     0.00800
Br1656     Br  0.87433917  0.61561070  0.68987559    -0.03700
Br1657     Br  0.95072651  0.59018190  0.79892189     0.00900
Br1658     Br  0.92227379  0.63720825  0.63771149    -0.02900
Br1659     Br  0.94110108  0.70704612  0.71949617    -0.03800
Br1660     Br  0.83897683  0.67402619  0.68801988     0.00200
C1661       C  0.86988898  0.78094122  0.72767577     0.01600
C1662       C  0.86835188  0.81144349  0.70789822     0.04400
C1663       C  0.88221728  0.83825927  0.71451898    -0.11700
C1664       C  0.89925866  0.83548704  0.73804356     0.23700
C1665       C  0.90038189  0.80781120  0.75963533    -0.12200
C1666       C  0.88525713  0.78213436  0.75634719     0.05100
C1667       C  0.91588379  0.86198255  0.73979795     0.27500
C1668       C  0.92961070  0.86743060  0.71110152    -0.12900
C1669       C  0.94444529  0.89324327  0.71191784     0.05600
C1670       C  0.94694668  0.91242446  0.74233963    -0.08900
C1671       C  0.93333693  0.90714793  0.77099148     0.06400
C1672       C  0.91729096  0.88308100  0.76910982    -0.13200
Br1673     Br  0.92397182  0.80431229  0.79255144    -0.05300
Br1674     Br  0.84732764  0.82254983  0.67330585     0.00300
Br1675     Br  0.96109397  0.90298218  0.67095440     0.00800
Br1676     Br  0.89642475  0.88049443  0.80575341    -0.03700
Br1677     Br  0.88797690  0.74869994  0.79165939     0.00900
Br1678     Br  0.87798903  0.88072530  0.69218032    -0.02900
Br1679     Br  0.92805616  0.84024336  0.66991404    -0.03800
Br1680     Br  0.93673191  0.93309692  0.81291804     0.00200
loop_ 
_geom_bond_atom_site_label_1 
_geom_bond_atom_site_label_2 
_geom_bond_distance 
_geom_bond_site_symmetry_2 
_ccdc_geom_bond_type 
N1            C6   1.354   1_455  A
N1            C5   1.355       .  A
N1           H33   1.044       .  S
N2           C10   1.349   1_565  A
N2          C849   1.349       .  A
N3            C8   1.354   1_455  A
N3            C7   1.356       .  A
N3           H34   1.038   1_455  S
N4           C12   1.356   1_565  A
N4          C851   1.356       .  A
C5           C13   1.386       .  A
C5           C21   1.420       .  A
C6           C22   1.422       .  A
C6           C14   1.389       .  A
C7           C15   1.387       .  A
C7           C24   1.421       .  A
C8           C23   1.419       .  A
C8           C16   1.387       .  A
C9          N842   1.352       .  A
C9           C21   1.414       .  A
C9           C17   1.385       .  A
C10          C24   1.412       .  A
C10          C18   1.388       .  A
C11         N844   1.357       .  A
C11          C19   1.386       .  A
C11          C22   1.425       .  A
C12          C20   1.385       .  A
C12          C23   1.419       .  A
C13          C14   1.374   1_455  A
C13          H25   1.082       .  S
C14          H26   1.081       .  S
C15          C16   1.378   1_455  A
C15          H27   1.082       .  S
C16          H28   1.082       .  S
C17         C858   1.372       .  A
C17          H29   1.082       .  S
C18         C857   1.373   1_545  A
C18          H30   1.082       .  S
C19         C860   1.376       .  A
C19          H31   1.082       .  S
C20         C859   1.374   1_545  A
C20          H32   1.082       .  S
C21         C770   1.494       .  S
C22         C830   1.501       .  S
C23         C801   1.499       .  S
C24         C781   1.494       .  S
C35         C721   1.617       .  S
C35         C750   1.621       .  S
C35         C761   1.622       .  S
C35         C790   1.612       .  S
C36         C681   1.617       .  S
C36         C701   1.621       .  S
C36         C810   1.621       .  S
C36         C821   1.631       .  S
C37         C610   1.607       .  S
C37         C641   1.627       .  S
C37        C1470   1.607   1_545  S
C37        C1510   1.602   1_545  S
N38          C43   1.354       .  A
N38          C42   1.355       .  A
N38          H70   1.038       .  S
N39          C46   1.354       .  A
N39          C47   1.354       .  A
N40          C45   1.357       .  A
N40          C44   1.356       .  A
N40          H71   1.038       .  S
N41          C48   1.355       .  A
N41          C49   1.353       .  A
C42          C50   1.388       .  A
C42          C58   1.421       .  A
C43          C59   1.418       .  A
C43          C51   1.386       .  A
C44          C52   1.387       .  A
C44          C61   1.423       .  A
C45          C60   1.425       .  A
C45          C53   1.388       .  A
C46          C58   1.420       .  A
C46          C54   1.387       .  A
C47          C61   1.418       .  A
C47          C55   1.386       .  A
C48          C56   1.385       .  A
C48          C59   1.418       .  A
C49          C57   1.387       .  A
C49          C60   1.420       .  A
C50          C51   1.379       .  A
C50          H62   1.082       .  S
C51          H63   1.082       .  S
C52          C53   1.380       .  A
C52          H64   1.082       .  S
C53          H65   1.082       .  S
C54          C55   1.377       .  A
C54          H66   1.082       .  S
C55          H67   1.082       .  S
C56          C57   1.377       .  A
C56          H68   1.082       .  S
C57          H69   1.082       .  S
C58         C661   1.502       .  S
C59         C561   1.502       .  S
C60         C581   1.505       .  S
C61         C650   1.501       .  S
C72         C541   1.613       .  S
C72         C590   1.610       .  S
C72        C1370   1.614   1_545  S
C72        C1410   1.626   1_545  S
O73          V81   1.925   1_556  S
O73          C83   1.270       .  A
O74          V81   1.922       .  S
O74          C84   1.268       .  A
O75          V81   1.917   1_556  S
O75          C85   1.268       .  A
O76          V81   1.921       .  S
O76          C86   1.269       .  A
O77          V82   1.895       .  S
O77          C86   1.263       .  A
O78          V82   1.894   1_556  S
O78          C85   1.262       .  A
O79          V82   1.907       .  S
O79          C84   1.266       .  A
O80          V82   1.915   1_556  S
O80          C83   1.268       .  A
V81          V82   2.080       .  T
C83         C521   1.513       .  S
C84         C490   1.495       .  S
C85         C730   1.508       .  S
C86         C510   1.491       .  S
N87          C92   1.353   1_655  A
N87          C91   1.352       .  A
N87         H119   1.039       .  S
N88          C96   1.350   1_565  A
N88         C935   1.351       .  A
N89          C94   1.356   1_655  A
N89          C93   1.356       .  A
N89         H120   1.039       .  S
N90          C98   1.354   1_565  A
N90         C937   1.355       .  A
C91          C99   1.388       .  A
C91         C107   1.415       .  A
C92         C108   1.414       .  A
C92         C100   1.386       .  A
C93         C101   1.387       .  A
C93         C110   1.422       .  A
C94         C109   1.422       .  A
C94         C102   1.388       .  A
C95         N928   1.347       .  A
C95         C107   1.408       .  A
C95         C103   1.386       .  A
C96         C110   1.414       .  A
C96         C104   1.388       .  A
C97         N930   1.354       .  A
C97         C105   1.385       .  A
C97         C108   1.417       .  A
C98         C106   1.386       .  A
C98         C109   1.420       .  A
C99         C100   1.377   1_655  A
C99         H111   1.082       .  S
C100        H112   1.082       .  S
C101        C102   1.377   1_655  A
C101        H113   1.082       .  S
C102        H114   1.082       .  S
C103        C944   1.373       .  A
C103        H115   1.082       .  S
C104        C943   1.373   1_545  A
C104        H116   1.082       .  S
C105        C946   1.373       .  A
C105        H117   1.082       .  S
C106        C945   1.376   1_545  A
C106        H118   1.082       .  S
C107        C461   1.482       .  S
C108        C401   1.498       .  S
C109        C430   1.502       .  S
C110        C441   1.497       .  S
C121        C390   1.611       .  S
C121        C410   1.605       .  S
C121        C421   1.611       .  S
C121        C481   1.620       .  S
C122        C341   1.618       .  S
C122        C361   1.621       .  S
C122        C450   1.607       .  S
C122        C470   1.612       .  S
C123        C290   1.626   1_565  S
C123        C310   1.605   1_565  S
C123       C1101   1.614       .  S
C123       C1161   1.614       .  S
C124        C201   1.601   1_565  S
C124        C241   1.621   1_565  S
C124       C1061   1.608       .  S
C124       C1341   1.625       .  S
N125        C130   1.359       .  A
N125        C129   1.353       .  A
N125        H157   1.034       .  S
N126        C133   1.348       .  A
N126        C134   1.351       .  A
N127        C132   1.350       .  A
N127        C131   1.355       .  A
N127        H158   1.035       .  S
N128        C135   1.349       .  A
N128        C136   1.347       .  A
C129        C137   1.387       .  A
C129        C145   1.422       .  A
C130        C146   1.425       .  A
C130        C138   1.387       .  A
C131        C139   1.389       .  A
C131        C148   1.419       .  A
C132        C147   1.412       .  A
C132        C140   1.386       .  A
C133        C145   1.416       .  A
C133        C141   1.388       .  A
C134        C148   1.416       .  A
C134        C142   1.386       .  A
C135        C143   1.388       .  A
C135        C146   1.415       .  A
C136        C144   1.385       .  A
C136        C147   1.408       .  A
C137        C138   1.378       .  A
C137        H149   1.082       .  S
C138        H150   1.082       .  S
C139        C140   1.373       .  A
C139        H151   1.082       .  S
C140        H152   1.082       .  S
C141        C142   1.372       .  A
C141        H153   1.082       .  S
C142        H154   1.082       .  S
C143        C144   1.368       .  A
C143        H155   1.082       .  S
C144        H156   1.082       .  S
C145        C230   1.484       .  S
C146        C330   1.497       .  S
C147        C301   1.474       .  S
C148        C250   1.495       .  S
O159        V167   1.906       .  S
O159        C169   1.265       .  A
O160        V167   1.909   1_554  S
O160        C170   1.266       .  A
O161        V167   1.909       .  S
O161        C171   1.266       .  A
O162        V167   1.914   1_554  S
O162        C172   1.268       .  A
O163        V168   1.899   1_554  S
O163        C172   1.263       .  A
O164        V168   1.905       .  S
O164        C171   1.265       .  A
O165        V168   1.900   1_554  S
O165        C170   1.264       .  A
O166        V168   1.901       .  S
O166        C169   1.265       .  A
V167        V168   2.081       .  T
C169        C601   1.492       .  S
C170        C370   1.512       .  S
C171        C690   1.488       .  S
C172        C281   1.493       .  S
O173        V181   1.905       .  S
O173        C183   1.266       .  A
O174        V181   1.903       .  S
O174        C184   1.263       .  A
O175        V181   1.918       .  S
O175        C185   1.268       .  A
O176        V181   1.917       .  S
O176        C186   1.269       .  A
O177        V182   1.903       .  S
O177        C186   1.262       .  A
O178        V182   1.908       .  S
O178        C185   1.266       .  A
O179        V182   1.906       .  S
O179        C184   1.268       .  A
O180        V182   1.911       .  S
O180        C183   1.267       .  A
V181        V182   2.083       .  T
C183        C741   1.507       .  S
C184        C210   1.499       .  S
C185        C550   1.493       .  S
C186        C381   1.484       .  S
O187        V195   1.902       .  S
O187        C197   1.266       .  A
O188        V195   1.906       .  S
O188        C198   1.265       .  A
O189        V195   1.906       .  S
O189        C199   1.265       .  A
O190        V195   1.908       .  S
O190        C200   1.266       .  A
O191        V196   1.910       .  S
O191        C200   1.267       .  A
O192        V196   1.908       .  S
O192        C199   1.267       .  A
O193        V196   1.897       .  S
O193        C198   1.264       .  A
O194        V196   1.908       .  S
O194        C197   1.265       .  A
V195        V196   2.080       .  T
C197        C710   1.493       .  S
C198        C270   1.500       .  S
C199        C621   1.493       .  S
C200        C350   1.501       .  S
C201        C202   1.452       .  A
C201        C206   1.456   1_545  A
C202        C203   1.415       .  A
C202       Br214   1.935       .  S
C203        C204   1.399       .  A
C203       Br218   1.938       .  S
C204        C205   1.400       .  A
C204        C207   1.500       .  S
C205        C206   1.418   1_545  A
C205      Br1053   1.939   1_545  S
C206      Br1057   1.945       .  S
C207        C208   1.410       .  A
C207        C212   1.409       .  A
C208        C209   1.408       .  A
C208       Br219   1.925       .  S
C209        C210   1.417       .  A
C209       Br215   1.937       .  S
C210        C211   1.423       .  A
C211        C212   1.415       .  A
C211       Br220   1.933       .  S
C212       Br216   1.931       .  S
Br213      C1045   1.940       .  S
Br217      C1046   1.945       .  S
C221        C222   1.452       .  A
C221        C226   1.446       .  A
C221        C964   1.608       .  S
C222        C223   1.416       .  A
C222       Br234   1.929       .  S
C223        C224   1.397       .  A
C223       Br238   1.937       .  S
C224        C225   1.396       .  A
C224        C227   1.487       .  S
C225        C226   1.409       .  A
C225       Br233   1.945       .  S
C226       Br237   1.914       .  S
C227        C228   1.412       .  A
C227        C232   1.409       .  A
C228        C229   1.408       .  A
C228       Br239   1.929       .  S
C229        C230   1.408       .  A
C229       Br235   1.927       .  S
C230        C231   1.407       .  A
C231        C232   1.402       .  A
C231       Br240   1.933       .  S
C232       Br236   1.923       .  S
C241        C242   1.442       .  A
C241        C246   1.462       .  A
C242        C243   1.406       .  A
C242       Br254   1.940       .  S
C243        C244   1.398       .  A
C243       Br258   1.929       .  S
C244        C245   1.398       .  A
C244        C247   1.494       .  S
C245        C246   1.416       .  A
C245       Br253   1.941       .  S
C246       Br257   1.934       .  S
C247        C248   1.414       .  A
C247        C252   1.413       .  A
C248        C249   1.407       .  A
C248       Br259   1.927       .  S
C249        C250   1.409       .  A
C249       Br255   1.931       .  S
C250        C251   1.411       .  A
C251        C252   1.408       .  A
C251       Br260   1.930       .  S
C252       Br256   1.931       .  S
C261        C266   1.456       .  A
C261       C1102   1.470       .  A
C261        C963   1.620       .  S
C262       C1101   1.467   1_545  A
C262       C1103   1.420       .  A
C262       Br274   1.952       .  S
C263        C264   1.394       .  A
C263       C1102   1.422       .  A
C263      Br1118   1.949       .  S
C264        C265   1.390       .  A
C264        C267   1.489       .  S
C265        C266   1.410       .  A
C265       Br273   1.945       .  S
C266       Br277   1.929       .  S
C267        C268   1.406       .  A
C267        C272   1.406       .  A
C268        C269   1.411       .  A
C268       Br279   1.932       .  S
C269        C270   1.424       .  A
C269       Br275   1.932       .  S
C270        C271   1.422       .  A
C271        C272   1.407       .  A
C271       Br280   1.935       .  S
C272       Br276   1.934       .  S
Br278      C1103   1.944       .  S
C281        C282   1.417       .  A
C281        C286   1.413       .  A
C282        C283   1.412       .  A
C282       Br294   1.931   1_554  S
C283        C284   1.408       .  A
C283      Br1138   1.929   1_545  S
C284        C285   1.413       .  A
C284        C287   1.501       .  S
C285        C286   1.412       .  A
C285       Br293   1.924       .  S
C286       Br297   1.932       .  S
C287        C288   1.391       .  A
C287        C292   1.398       .  A
C288        C289   1.413       .  A
C288       Br299   1.942       .  S
C289        C290   1.457       .  A
C289      Br1135   1.927       .  S
C290        C291   1.467       .  A
C291        C292   1.425       .  A
C291       Br300   1.947       .  S
C292       Br296   1.942       .  S
Br295      C1129   1.924       .  S
Br298      C1123   1.930       .  S
C301        C302   1.406       .  A
C301        C306   1.409       .  A
C302        C303   1.402       .  A
C302       Br314   1.928       .  S
C303        C304   1.410       .  A
C303       Br318   1.930       .  S
C304        C305   1.405       .  A
C304        C307   1.471       .  S
C305        C306   1.399       .  A
C305       Br313   1.930       .  S
C306       Br317   1.931       .  S
C307        C308   1.390       .  A
C307        C312   1.389       .  A
C308        C309   1.404       .  A
C308       Br319   1.950       .  S
C309        C310   1.464       .  A
C309      Br1155   1.954   1_545  S
C310        C311   1.457       .  A
C311        C312   1.409       .  A
C311       Br320   1.937       .  S
C312       Br316   1.938       .  S
Br315      C1149   1.952       .  S
C321        C322   1.462       .  A
C321        C326   1.458       .  A
C321        C963   1.616       .  S
C322        C323   1.424       .  A
C322       Br334   1.951       .  S
C323        C324   1.399       .  A
C323       Br338   1.940       .  S
C324        C325   1.393       .  A
C324        C327   1.496       .  S
C325        C326   1.412       .  A
C325       Br333   1.951       .  S
C326       Br337   1.930       .  S
C327        C328   1.414       .  A
C327        C332   1.412       .  A
C328        C329   1.410       .  A
C328       Br339   1.930       .  S
C329        C330   1.409       .  A
C329       Br335   1.929       .  S
C330        C331   1.413       .  A
C331        C332   1.407       .  A
C331       Br340   1.931       .  S
C332       Br336   1.932       .  S
C341        C342   1.464       .  A
C341        C346   1.455       .  A
C342        C343   1.422       .  A
C342       Br354   1.940       .  S
C343        C344   1.398       .  A
C343       Br358   1.945       .  S
C344        C345   1.392       .  A
C344        C347   1.495       .  S
C345        C346   1.410       .  A
C345       Br353   1.943       .  S
C346       Br357   1.928       .  S
C347        C348   1.409       .  A
C347        C352   1.406       .  A
C348        C349   1.413       .  A
C348       Br359   1.933       .  S
C349        C350   1.421       .  A
C349       Br355   1.930       .  S
C350        C351   1.419       .  A
C351        C352   1.410       .  A
C351       Br360   1.924       .  S
C352       Br356   1.933       .  S
C361        C362   1.457       .  A
C361        C366   1.467       .  A
C362        C363   1.413       .  A
C362       Br374   1.925       .  S
C363        C364   1.392       .  A
C363       Br378   1.949       .  S
C364        C365   1.397       .  A
C364        C367   1.496       .  S
C365        C366   1.425       .  A
C365       Br373   1.942       .  S
C366       Br377   1.950       .  S
C367        C368   1.405       .  A
C367        C372   1.405       .  A
C368        C369   1.411       .  A
C368       Br379   1.936       .  S
C369        C370   1.430       .  A
C369       Br375   1.937       .  S
C370        C371   1.429       .  A
C371        C372   1.414       .  A
C371       Br380   1.935       .  S
C372       Br376   1.933       .  S
C381        C382   1.410       .  A
C381        C386   1.410       .  A
C382        C383   1.412       .  A
C382       Br394   1.927       .  S
C383        C384   1.411       .  A
C383       Br398   1.927       .  S
C384        C385   1.411       .  A
C384        C387   1.495       .  S
C385        C386   1.410       .  A
C385       Br393   1.930       .  S
C386       Br397   1.927       .  S
C387        C388   1.395       .  A
C387        C392   1.398       .  A
C388        C389   1.412       .  A
C388       Br399   1.947       .  S
C389        C390   1.457       .  A
C389       Br395   1.937       .  S
C390        C391   1.453       .  A
C391        C392   1.419       .  A
C391       Br400   1.932       .  S
C392       Br396   1.935       .  S
C401        C402   1.413       .  A
C401        C406   1.412       .  A
C402        C403   1.409       .  A
C402       Br414   1.930       .  S
C403        C404   1.411       .  A
C403       Br418   1.932       .  S
C404        C405   1.411       .  A
C404        C407   1.493       .  S
C405        C406   1.409       .  A
C405       Br413   1.928       .  S
C406       Br417   1.930       .  S
C407        C408   1.398       .  A
C407        C412   1.398       .  A
C408        C409   1.413       .  A
C408       Br419   1.936       .  S
C409        C410   1.456       .  A
C409       Br415   1.945       .  S
C410        C411   1.454       .  A
C411        C412   1.412       .  A
C411       Br420   1.938       .  S
C412       Br416   1.938       .  S
C421        C422   1.452       .  A
C421        C426   1.452       .  A
C422        C423   1.407       .  A
C422       Br434   1.928       .  S
C423        C424   1.397       .  A
C423       Br438   1.936       .  S
C424        C425   1.410       .  A
C424        C427   1.510       .  S
C425        C426   1.424       .  A
C425       Br433   1.932       .  S
C426       Br437   1.938       .  S
C427        C428   1.422       .  A
C427        C432   1.416       .  A
C428        C429   1.410       .  A
C428       Br439   1.929       .  S
C429        C430   1.406       .  A
C429       Br435   1.932       .  S
C430        C431   1.412       .  A
C431        C432   1.415       .  A
C431       Br440   1.929       .  S
C432       Br436   1.930       .  S
C441        C442   1.415       .  A
C441        C446   1.413       .  A
C442        C443   1.403       .  A
C442       Br454   1.932       .  S
C443        C444   1.409       .  A
C443       Br458   1.933       .  S
C444        C445   1.413       .  A
C444        C447   1.490       .  S
C445        C446   1.409       .  A
C445       Br453   1.930       .  S
C446       Br457   1.930       .  S
C447        C448   1.397       .  A
C447        C452   1.398       .  A
C448        C449   1.411       .  A
C448       Br459   1.950       .  S
C449        C450   1.452       .  A
C449       Br455   1.931       .  S
C450        C451   1.463       .  A
C451        C452   1.420       .  A
C451       Br460   1.955       .  S
C452       Br456   1.942       .  S
C461        C462   1.406       .  A
C461        C466   1.410       .  A
C462        C463   1.404       .  A
C462       Br474   1.929       .  S
C463        C464   1.411       .  A
C463       Br478   1.930       .  S
C464        C465   1.408       .  A
C464        C467   1.481       .  S
C465        C466   1.405       .  A
C465       Br473   1.929       .  S
C466       Br477   1.929       .  S
C467        C468   1.390       .  A
C467        C472   1.393       .  A
C468        C469   1.408       .  A
C468       Br479   1.947       .  S
C469        C470   1.465       .  A
C469       Br475   1.946       .  S
C470        C471   1.455       .  A
C471        C472   1.411       .  A
C471       Br480   1.935       .  S
C472       Br476   1.936       .  S
C481        C482   1.461       .  A
C481        C486   1.456       .  A
C482        C483   1.412       .  A
C482       Br494   1.943       .  S
C483        C484   1.394       .  A
C483       Br498   1.943       .  S
C484        C485   1.398       .  A
C484        C487   1.501       .  S
C485        C486   1.422       .  A
C485       Br493   1.934       .  S
C486       Br497   1.933       .  S
C487        C488   1.410       .  A
C487        C492   1.411       .  A
C488        C489   1.417       .  A
C488       Br499   1.928       .  S
C489        C490   1.416       .  A
C489       Br495   1.922       .  S
C490        C491   1.412       .  A
C491        C492   1.410       .  A
C491       Br500   1.929       .  S
C492       Br496   1.927       .  S
C501        C502   1.460       .  A
C501        C506   1.465       .  A
C501        C964   1.624       .  S
C502        C503   1.416       .  A
C502       Br514   1.943       .  S
C503        C504   1.394       .  A
C503       Br518   1.941       .  S
C504        C505   1.396       .  A
C504        C507   1.498       .  S
C505        C506   1.420       .  A
C505       Br513   1.943       .  S
C506       Br517   1.950       .  S
C507        C508   1.409       .  A
C507        C512   1.412       .  A
C508        C509   1.410       .  A
C508      Br1359   1.929       .  S
C509        C510   1.414       .  A
C509       Br515   1.931       .  S
C510        C511   1.414       .  A
C511        C512   1.414       .  A
C511       Br520   1.929       .  S
C512       Br516   1.931       .  S
Br519      C1348   1.929       .  S
C521        C522   1.420       .  A
C521        C526   1.419       .  A
C522        C523   1.423       .  A
C522       Br534   1.929       .  S
C523        C524   1.413       .  A
C523       Br538   1.926       .  S
C524        C525   1.410       .  A
C524        C527   1.513       .  S
C525        C526   1.414       .  A
C525       Br533   1.933       .  S
C526       Br537   1.922       .  S
C527        C528   1.404       .  A
C527        C532   1.402       .  A
C528        C529   1.426       .  A
C528      Br1379   1.937       .  S
C529        C530   1.454       .  A
C529      Br1375   1.937       .  S
C530        C531   1.442       .  A
C530        C912   1.623       .  S
C531        C532   1.418       .  A
C531       Br540   1.927       .  S
C532       Br536   1.936       .  S
Br535      C1369   1.937       .  S
Br539      C1368   1.937   1_545  S
C541        C542   1.454       .  A
C541        C546   1.448       .  A
C542        C543   1.422       .  A
C542      Br1394   1.937       .  S
C543        C544   1.401       .  A
C543       Br558   1.938       .  S
C544        C545   1.401       .  A
C544        C547   1.510       .  S
C545        C546   1.420       .  A
C545       Br553   1.940       .  S
C546       Br557   1.920       .  S
C547        C548   1.415       .  A
C547        C552   1.415       .  A
C548        C549   1.418       .  A
C548       Br559   1.928   1_545  S
C549        C550   1.412       .  A
C549       Br555   1.928       .  S
C550        C551   1.409       .  A
C551        C552   1.412       .  A
C551       Br560   1.926       .  S
C552       Br556   1.928       .  S
Br554      C1382   1.937       .  S
C561        C562   1.412       .  A
C561        C566   1.411       .  A
C562        C563   1.416       .  A
C562       Br574   1.926       .  S
C563        C564   1.412       .  A
C563       Br578   1.926       .  S
C564        C565   1.413       .  A
C564        C567   1.501       .  S
C565        C566   1.410       .  A
C565       Br573   1.930       .  S
C566       Br577   1.931       .  S
C567        C568   1.408       .  A
C567        C572   1.399       .  A
C568        C569   1.422       .  A
C568       Br579   1.927       .  S
C569        C570   1.431       .  A
C569       Br575   1.936       .  S
C570        C571   1.439       .  A
C570        C912   1.632       .  S
C571        C572   1.409       .  A
C571      Br1420   1.929       .  S
C572       Br576   1.939       .  S
Br580      C1411   1.931   1_545  S
C581        C582   1.414       .  A
C581        C586   1.413       .  A
C582        C583   1.412       .  A
C582       Br594   1.929       .  S
C583        C584   1.412       .  A
C583       Br598   1.930       .  S
C584        C585   1.413       .  A
C584        C587   1.501       .  S
C585        C586   1.413       .  A
C585       Br593   1.928       .  S
C586       Br597   1.931       .  S
C587        C588   1.405       .  A
C587        C592   1.401       .  A
C588        C589   1.420       .  A
C588       Br599   1.934       .  S
C589        C590   1.447       .  A
C589      Br1435   1.946   1_545  S
C590        C591   1.446       .  A
C591        C592   1.414       .  A
C591       Br600   1.938       .  S
C592       Br596   1.937       .  S
Br595      C1429   1.945       .  S
C601        C602   1.419       .  A
C601        C606   1.416       .  A
C602        C603   1.412       .  A
C602       Br614   1.931       .  S
C603        C604   1.406       .  A
C603       Br618   1.929       .  S
C604        C605   1.410       .  A
C604        C607   1.492       .  S
C605        C606   1.409       .  A
C605       Br613   1.933       .  S
C606       Br617   1.934       .  S
C607        C608   1.400       .  A
C607        C612   1.396       .  A
C608        C609   1.418       .  A
C608      Br1459   1.938       .  S
C609        C610   1.455       .  A
C609      Br1455   1.943   1_545  S
C610        C611   1.441       .  A
C611        C612   1.406       .  A
C611       Br620   1.930       .  S
C612       Br616   1.936       .  S
Br615      C1449   1.944       .  S
Br619      C1448   1.936       .  S
C621        C622   1.418       .  A
C621        C626   1.414       .  A
C622        C623   1.415       .  A
C622       Br634   1.931       .  S
C623        C624   1.410       .  A
C623       Br638   1.929       .  S
C624        C625   1.412       .  A
C624        C627   1.501       .  S
C625        C626   1.410       .  A
C625       Br633   1.926       .  S
C626       Br637   1.934       .  S
C627        C628   1.397       .  A
C627        C632   1.397       .  A
C628        C629   1.419       .  A
C628       Br639   1.941       .  S
C629        C630   1.457       .  A
C629       Br635   1.938       .  S
C630        C631   1.445       .  A
C630        C877   1.610       .  S
C631        C632   1.418       .  A
C631      Br1480   1.919       .  S
C632       Br636   1.938       .  S
Br640      C1471   1.917       .  S
C641        C642   1.428       .  A
C641        C646   1.437       .  A
C642        C643   1.419       .  A
C642       Br654   1.935       .  S
C643        C644   1.407       .  A
C643       Br658   1.927       .  S
C644        C645   1.401       .  A
C644        C647   1.497       .  S
C645        C646   1.408       .  A
C645       Br653   1.938       .  S
C646      Br1497   1.928       .  S
C647        C648   1.411       .  A
C647        C652   1.414       .  A
C648        C649   1.413       .  A
C648       Br659   1.927       .  S
C649        C650   1.411       .  A
C649       Br655   1.927       .  S
C650        C651   1.410       .  A
C651        C652   1.411       .  A
C651       Br660   1.929       .  S
C652       Br656   1.930       .  S
Br657      C1486   1.929       .  S
C661        C662   1.411       .  A
C661        C666   1.413       .  A
C662        C663   1.409       .  A
C662       Br674   1.932       .  S
C663        C664   1.412       .  A
C663       Br678   1.923       .  S
C664        C665   1.414       .  A
C664        C667   1.502       .  S
C665        C666   1.415       .  A
C665       Br673   1.929       .  S
C666       Br677   1.929       .  S
C667        C668   1.399       .  A
C667        C672   1.407       .  A
C668        C669   1.408       .  A
C668       Br679   1.938       .  S
C669        C670   1.442       .  A
C669       Br675   1.931       .  S
C670        C671   1.452       .  A
C670        C877   1.607       .  S
C671        C672   1.426       .  A
C671      Br1520   1.946       .  S
C672       Br676   1.932       .  S
Br680      C1511   1.947   1_545  S
C681        C682   1.454       .  A
C681        C686   1.450       .  A
C682        C683   1.424       .  A
C682       Br694   1.930       .  S
C683        C684   1.401       .  A
C683       Br698   1.934       .  S
C684        C685   1.395       .  A
C684        C687   1.499       .  S
C685        C686   1.409       .  A
C685       Br693   1.943       .  S
C686       Br697   1.915       .  S
C687        C688   1.411       .  A
C687        C692   1.413       .  A
C688        C689   1.410       .  A
C688       Br699   1.932       .  S
C689        C690   1.412       .  A
C689       Br695   1.927       .  S
C690        C691   1.412       .  A
C691        C692   1.413       .  A
C691       Br700   1.931       .  S
C692       Br696   1.925       .  S
C701        C702   1.447       .  A
C701        C706   1.446       .  A
C702        C703   1.409       .  A
C702       Br714   1.932       .  S
C703        C704   1.397       .  A
C703       Br718   1.937       .  S
C704        C705   1.412       .  A
C704        C707   1.502       .  S
C705        C706   1.429       .  A
C705       Br713   1.936       .  S
C706       Br717   1.925       .  S
C707        C708   1.410       .  A
C707        C712   1.415       .  A
C708        C709   1.413       .  A
C708       Br719   1.932       .  S
C709        C710   1.417       .  A
C709       Br715   1.924       .  S
C710        C711   1.414       .  A
C711        C712   1.409       .  A
C711       Br720   1.938       .  S
C712       Br716   1.926       .  S
C721        C722   1.465       .  A
C721        C726   1.453       .  A
C722        C723   1.421       .  A
C722       Br734   1.948       .  S
C723        C724   1.398       .  A
C723       Br738   1.947       .  S
C724        C725   1.395       .  A
C724        C727   1.497       .  S
C725        C726   1.414       .  A
C725       Br733   1.945       .  S
C726       Br737   1.927       .  S
C727        C728   1.408       .  A
C727        C732   1.406       .  A
C728        C729   1.415       .  A
C728       Br739   1.932       .  S
C729        C730   1.426       .  A
C729       Br735   1.932       .  S
C730        C731   1.427       .  A
C731        C732   1.407       .  A
C731       Br740   1.935       .  S
C732       Br736   1.937       .  S
C741        C742   1.423       .  A
C741        C746   1.423       .  A
C742        C743   1.413       .  A
C742       Br754   1.934       .  S
C743        C744   1.409       .  A
C743       Br758   1.929       .  S
C744        C745   1.407       .  A
C744        C747   1.500       .  S
C745        C746   1.413       .  A
C745       Br753   1.931       .  S
C746       Br757   1.933       .  S
C747        C748   1.392       .  A
C747        C752   1.399       .  A
C748        C749   1.412       .  A
C748       Br759   1.943       .  S
C749        C750   1.456       .  A
C749       Br755   1.926       .  S
C750        C751   1.462       .  A
C751        C752   1.426       .  A
C751       Br760   1.934       .  S
C752       Br756   1.942       .  S
C761        C762   1.457       .  A
C761        C766   1.462       .  A
C762        C763   1.419       .  A
C762       Br774   1.931       .  S
C763        C764   1.396       .  A
C763       Br778   1.938       .  S
C764        C765   1.392       .  A
C764        C767   1.490       .  S
C765        C766   1.408       .  A
C765       Br773   1.943       .  S
C766       Br777   1.949       .  S
C767        C768   1.412       .  A
C767        C772   1.409       .  A
C768        C769   1.409       .  A
C768       Br779   1.929       .  S
C769        C770   1.409       .  A
C769       Br775   1.928       .  S
C770        C771   1.411       .  A
C771        C772   1.407       .  A
C771       Br780   1.930       .  S
C772       Br776   1.928       .  S
C781        C782   1.410       .  A
C781        C786   1.413       .  A
C782        C783   1.409       .  A
C782       Br794   1.930       .  S
C783        C784   1.412       .  A
C783       Br798   1.929       .  S
C784        C785   1.410       .  A
C784        C787   1.491       .  S
C785        C786   1.405       .  A
C785       Br793   1.932       .  S
C786       Br797   1.932       .  S
C787        C788   1.395       .  A
C787        C792   1.397       .  A
C788        C789   1.411       .  A
C788       Br799   1.947       .  S
C789        C790   1.457       .  A
C789       Br795   1.939       .  S
C790        C791   1.463       .  A
C791        C792   1.422       .  A
C791       Br800   1.949       .  S
C792       Br796   1.944       .  S
C801        C802   1.410       .  A
C801        C806   1.407       .  A
C802        C803   1.416       .  A
C802       Br814   1.927       .  S
C803        C804   1.416       .  A
C803       Br818   1.929       .  S
C804        C805   1.417       .  A
C804        C807   1.508       .  S
C805        C806   1.409       .  A
C805       Br813   1.920       .  S
C806       Br817   1.934       .  S
C807        C808   1.399       .  A
C807        C812   1.409       .  A
C808        C809   1.412       .  A
C808       Br819   1.935       .  S
C809        C810   1.447       .  A
C809       Br815   1.939       .  S
C810        C811   1.446       .  A
C811        C812   1.430       .  A
C811       Br820   1.923       .  S
C812       Br816   1.934       .  S
C821        C822   1.460       .  A
C821        C826   1.452       .  A
C822        C823   1.422       .  A
C822       Br834   1.904       .  S
C823        C824   1.394       .  A
C823       Br838   1.955       .  S
C824        C825   1.401       .  A
C824        C827   1.506       .  S
C825        C826   1.422       .  A
C825       Br833   1.938       .  S
C826       Br837   1.924       .  S
C827        C828   1.418       .  A
C827        C832   1.414       .  A
C828        C829   1.411       .  A
C828       Br839   1.929       .  S
C829        C830   1.410       .  A
C829       Br835   1.931       .  S
C830        C831   1.411       .  A
C831        C832   1.411       .  A
C831       Br840   1.928       .  S
C832       Br836   1.929       .  S
N841        C846   1.353   1_455  A
N841        C845   1.357       .  A
N841        H873   1.035   1_455  S
N842        C850   1.352       .  A
N843        C848   1.357   1_455  A
N843        C847   1.358       .  A
N843        H874   1.045       .  S
N844        C852   1.356       .  A
C845        C853   1.386       .  A
C845        C861   1.421       .  A
C846        C862   1.422       .  A
C846        C854   1.388       .  A
C847        C855   1.387       .  A
C847        C864   1.425       .  A
C848        C863   1.424       .  A
C848        C856   1.387       .  A
C849        C861   1.410       .  A
C849        C857   1.385       .  A
C850        C864   1.417       .  A
C850        C858   1.387       .  A
C851        C859   1.387       .  A
C851        C862   1.423       .  A
C852        C860   1.386       .  A
C852        C863   1.423       .  A
C853        C854   1.377   1_455  A
C853        H865   1.082       .  S
C854        H866   1.081       .  S
C855        C856   1.379   1_455  A
C855        H867   1.082       .  S
C856        H868   1.082       .  S
C857        H869   1.082       .  S
C858        H870   1.082       .  S
C859        H871   1.082       .  S
C860        H872   1.082       .  S
C861       C1610   1.493       .  S
C862       C1670   1.501       .  S
C863       C1641   1.505       .  S
C864       C1621   1.502       .  S
C875       C1561   1.622       .  S
C875       C1590   1.617       .  S
C875       C1601   1.622       .  S
C875       C1630   1.618       .  S
C876       C1521   1.622       .  S
C876       C1541   1.627       .  S
C876       C1650   1.624       .  S
C876       C1661   1.631       .  S
C877       C1450   1.607       .  S
C877       C1481   1.627       .  S
N878        C883   1.354       .  A
N878        C882   1.352       .  A
N878        H910   1.037       .  S
N879        C886   1.352       .  A
N879        C887   1.354       .  A
N880        C885   1.357       .  A
N880        C884   1.357       .  A
N880        H911   1.038       .  S
N881        C888   1.354       .  A
N881        C889   1.351       .  A
C882        C890   1.389       .  A
C882        C898   1.418       .  A
C883        C899   1.415       .  A
C883        C891   1.385       .  A
C884        C892   1.386       .  A
C884        C901   1.423       .  A
C885        C900   1.425       .  A
C885        C893   1.388       .  A
C886        C898   1.419       .  A
C886        C894   1.387       .  A
C887        C901   1.417       .  A
C887        C895   1.385       .  A
C888        C896   1.384       .  A
C888        C899   1.414       .  A
C889        C897   1.388       .  A
C889        C900   1.418       .  A
C890        C891   1.377       .  A
C890        H902   1.082       .  S
C891        H903   1.082       .  S
C892        C893   1.380       .  A
C892        H904   1.082       .  S
C893        H905   1.082       .  S
C894        C895   1.376       .  A
C894        H906   1.083       .  S
C895        H907   1.082       .  S
C896        C897   1.375       .  A
C896        H908   1.082       .  S
C897        H909   1.082       .  S
C898       C1501   1.491       .  S
C899       C1401   1.498       .  S
C900       C1421   1.500       .  S
C901       C1490   1.503       .  S
C912       C1381   1.626       .  S
C912       C1430   1.611       .  S
O913        V921   1.915   1_556  S
O913        C923   1.268       .  A
O914        V921   1.918       .  S
O914        C924   1.268       .  A
O915        V921   1.911   1_556  S
O915        C925   1.266       .  A
O916        V921   1.918       .  S
O916        C926   1.268       .  A
O917        V922   1.898       .  S
O917        C926   1.264       .  A
O918        V922   1.896   1_556  S
O918        C925   1.263       .  A
O919        V922   1.899       .  S
O919        C924   1.263       .  A
O920        V922   1.903   1_556  S
O920        C923   1.265       .  A
V921        V922   2.082       .  T
C923       C1361   1.503       .  S
C924       C1330   1.484       .  S
C925       C1570   1.507       .  S
C926       C1350   1.493       .  S
N927        C932   1.354   1_655  A
N927        C931   1.356       .  A
N927        H959   1.039       .  S
N928        C936   1.349       .  A
N929        C934   1.353   1_655  A
N929        C933   1.356       .  A
N929        H960   1.039       .  S
N930        C938   1.352       .  A
C931        C939   1.387       .  A
C931        C947   1.420       .  A
C932        C948   1.419       .  A
C932        C940   1.387       .  A
C933        C941   1.385       .  A
C933        C950   1.418       .  A
C934        C949   1.420       .  A
C934        C942   1.390       .  A
C935        C947   1.411       .  A
C935        C943   1.385       .  A
C936        C950   1.412       .  A
C936        C944   1.387       .  A
C937        C945   1.387       .  A
C937        C948   1.421       .  A
C938        C946   1.388       .  A
C938        C949   1.419       .  A
C939        C940   1.378   1_655  A
C939        H951   1.082       .  S
C940        H952   1.082       .  S
C941        C942   1.375   1_655  A
C941        H953   1.082       .  S
C942        H954   1.081       .  S
C943        H955   1.082       .  S
C944        H956   1.082       .  S
C945        H957   1.082       .  S
C946        H958   1.082       .  S
C947       C1301   1.495       .  S
C948       C1241   1.504       .  S
C949       C1270   1.493       .  S
C950       C1281   1.497       .  S
C961       C1230   1.616       .  S
C961       C1250   1.608       .  S
C961       C1261   1.605       .  S
C961       C1321   1.618       .  S
C962       C1181   1.612       .  S
C962       C1201   1.616       .  S
C962       C1290   1.612       .  S
C962       C1310   1.620       .  S
C963       C1130   1.625       .  S
C963       C1150   1.611       .  S
C964       C1041   1.602       .  S
C964       C1081   1.630       .  S
N965        C970   1.360       .  A
N965        C969   1.354       .  A
N965        H997   1.035       .  S
N966        C973   1.350       .  A
N966        C974   1.355       .  A
N967        C972   1.352       .  A
N967        C971   1.358       .  A
N967        H998   1.037       .  S
N968        C975   1.351       .  A
N968        C976   1.348       .  A
C969        C977   1.389       .  A
C969        C985   1.425       .  A
C970        C986   1.424       .  A
C970        C978   1.386       .  A
C971        C979   1.388       .  A
C971        C988   1.423       .  A
C972        C987   1.414       .  A
C972        C980   1.386       .  A
C973        C985   1.420       .  A
C973        C981   1.388       .  A
C974        C988   1.421       .  A
C974        C982   1.385       .  A
C975        C983   1.388       .  A
C975        C986   1.416       .  A
C976        C984   1.385       .  A
C976        C987   1.409       .  A
C977        C978   1.375       .  A
C977        H989   1.082       .  S
C978        H990   1.082       .  S
C979        C980   1.373       .  A
C979        H991   1.082       .  S
C980        H992   1.082       .  S
C981        C982   1.375       .  A
C981        H993   1.082       .  S
C982        H994   1.082       .  S
C983        C984   1.367       .  A
C983        H995   1.082       .  S
C984        H996   1.082       .  S
C985       C1070   1.489       .  S
C986       C1170   1.503       .  S
C987       C1141   1.479       .  S
C988       C1090   1.510       .  S
O999       V1007   1.906       .  S
O999       C1009   1.265       .  A
O1000      V1007   1.910   1_554  S
O1000      C1010   1.267       .  A
O1001      V1007   1.913       .  S
O1001      C1011   1.266       .  A
O1002      V1007   1.916   1_554  S
O1002      C1012   1.268       .  A
O1003      V1008   1.895   1_554  S
O1003      C1012   1.263       .  A
O1004      V1008   1.905       .  S
O1004      C1011   1.265       .  A
O1005      V1008   1.900   1_554  S
O1005      C1010   1.263       .  A
O1006      V1008   1.898       .  S
O1006      C1009   1.265       .  A
V1007      V1008   2.081       .  T
C1009      C1441   1.496       .  S
C1010      C1210   1.504       .  S
C1011      C1530   1.487       .  S
C1012      C1121   1.498       .  S
O1013      V1021   1.904       .  S
O1013      C1023   1.265       .  A
O1014      V1021   1.900       .  S
O1014      C1024   1.262       .  A
O1015      V1021   1.923       .  S
O1015      C1025   1.269       .  A
O1016      V1021   1.925       .  S
O1016      C1026   1.271       .  A
O1017      V1022   1.908       .  S
O1017      C1026   1.263       .  A
O1018      V1022   1.915       .  S
O1018      C1025   1.267       .  A
O1019      V1022   1.909       .  S
O1019      C1024   1.269       .  A
O1020      V1022   1.914       .  S
O1020      C1023   1.268       .  A
V1021      V1022   2.081       .  T
C1023      C1581   1.511       .  S
C1024      C1050   1.502       .  S
C1025      C1390   1.502       .  S
C1026      C1221   1.494       .  S
O1027      V1035   1.906       .  S
O1027      C1037   1.266       .  A
O1028      V1035   1.907       .  S
O1028      C1038   1.265       .  A
O1029      V1035   1.902       .  S
O1029      C1039   1.264       .  A
O1030      V1035   1.902       .  S
O1030      C1040   1.265       .  A
O1031      V1036   1.895       .  S
O1031      C1040   1.262       .  A
O1032      V1036   1.898       .  S
O1032      C1039   1.264       .  A
O1033      V1036   1.900       .  S
O1033      C1038   1.265       .  A
O1034      V1036   1.912       .  S
O1034      C1037   1.267       .  A
V1035      V1036   2.082       .  T
C1037      C1550   1.494       .  S
C1038      C1110   1.498       .  S
C1039      C1461   1.480       .  S
C1040      C1190   1.496       .  S
C1041      C1042   1.451       .  A
C1041      C1046   1.459       .  A
C1042      C1043   1.415       .  A
C1042     Br1054   1.933       .  S
C1043      C1044   1.397       .  A
C1043     Br1058   1.938       .  S
C1044      C1045   1.400       .  A
C1044      C1047   1.500       .  S
C1045      C1046   1.421       .  A
C1047      C1048   1.409       .  A
C1047      C1052   1.407       .  A
C1048      C1049   1.407       .  A
C1048     Br1059   1.922       .  S
C1049      C1050   1.417       .  A
C1049     Br1055   1.937       .  S
C1050      C1051   1.426       .  A
C1051      C1052   1.415       .  A
C1051     Br1060   1.933       .  S
C1052     Br1056   1.932       .  S
C1061      C1062   1.450       .  A
C1061      C1066   1.448       .  A
C1062      C1063   1.415       .  A
C1062     Br1074   1.928       .  S
C1063      C1064   1.397       .  A
C1063     Br1078   1.936       .  S
C1064      C1065   1.398       .  A
C1064      C1067   1.491       .  S
C1065      C1066   1.414       .  A
C1065     Br1073   1.944       .  S
C1066     Br1077   1.916       .  S
C1067      C1068   1.412       .  A
C1067      C1072   1.411       .  A
C1068      C1069   1.409       .  A
C1068     Br1079   1.929       .  S
C1069      C1070   1.409       .  A
C1069     Br1075   1.927       .  S
C1070      C1071   1.407       .  A
C1071      C1072   1.405       .  A
C1071     Br1080   1.931       .  S
C1072     Br1076   1.924       .  S
C1081      C1082   1.449       .  A
C1081      C1086   1.461       .  A
C1082      C1083   1.413       .  A
C1082     Br1094   1.943       .  S
C1083      C1084   1.400       .  A
C1083     Br1098   1.931       .  S
C1084      C1085   1.399       .  A
C1084      C1087   1.503       .  S
C1085      C1086   1.418       .  A
C1085     Br1093   1.943       .  S
C1086     Br1097   1.936       .  S
C1087      C1088   1.413       .  A
C1087      C1092   1.414       .  A
C1088      C1089   1.411       .  A
C1088     Br1099   1.928       .  S
C1089      C1090   1.414       .  A
C1089     Br1095   1.932       .  S
C1090      C1091   1.416       .  A
C1091      C1092   1.414       .  A
C1091     Br1100   1.930       .  S
C1092     Br1096   1.931       .  S
C1101      C1106   1.455       .  A
C1102     Br1114   1.949       .  S
C1103      C1104   1.396   1_545  A
C1104      C1105   1.391       .  A
C1104      C1107   1.489       .  S
C1105      C1106   1.409       .  A
C1105     Br1113   1.943       .  S
C1106     Br1117   1.932       .  S
C1107      C1108   1.405       .  A
C1107      C1112   1.406       .  A
C1108      C1109   1.410       .  A
C1108     Br1119   1.933       .  S
C1109      C1110   1.422       .  A
C1109     Br1115   1.928       .  S
C1110      C1111   1.420       .  A
C1111      C1112   1.409       .  A
C1111     Br1120   1.934       .  S
C1112     Br1116   1.932       .  S
C1121      C1122   1.421       .  A
C1121      C1126   1.416       .  A
C1122      C1123   1.412       .  A
C1122     Br1134   1.933   1_554  S
C1123      C1124   1.407       .  A
C1124      C1125   1.410       .  A
C1124      C1127   1.498       .  S
C1125      C1126   1.410       .  A
C1125     Br1133   1.927       .  S
C1126     Br1137   1.929       .  S
C1127      C1128   1.389       .  A
C1127      C1132   1.397       .  A
C1128      C1129   1.413       .  A
C1128     Br1139   1.944       .  S
C1129      C1130   1.457       .  A
C1130      C1131   1.467       .  A
C1131      C1132   1.426       .  A
C1131     Br1140   1.948       .  S
C1132     Br1136   1.944       .  S
C1141      C1142   1.407       .  A
C1141      C1146   1.409       .  A
C1142      C1143   1.402       .  A
C1142     Br1154   1.928       .  S
C1143      C1144   1.409       .  A
C1143     Br1158   1.930       .  S
C1144      C1145   1.407       .  A
C1144      C1147   1.476       .  S
C1145      C1146   1.403       .  A
C1145     Br1153   1.929       .  S
C1146     Br1157   1.931       .  S
C1147      C1148   1.391       .  A
C1147      C1152   1.390       .  A
C1148      C1149   1.408       .  A
C1148     Br1159   1.950       .  S
C1149      C1150   1.465       .  A
C1150      C1151   1.457       .  A
C1151      C1152   1.411       .  A
C1151     Br1160   1.935       .  S
C1152     Br1156   1.940       .  S
C1161      C1162   1.459       .  A
C1161      C1166   1.458       .  A
C1162      C1163   1.426       .  A
C1162     Br1174   1.949       .  S
C1163      C1164   1.403       .  A
C1163     Br1178   1.939       .  S
C1164      C1165   1.393       .  A
C1164      C1167   1.499       .  S
C1165      C1166   1.411       .  A
C1165     Br1173   1.951       .  S
C1166     Br1177   1.930       .  S
C1167      C1168   1.414       .  A
C1167      C1172   1.413       .  A
C1168      C1169   1.412       .  A
C1168     Br1179   1.930       .  S
C1169      C1170   1.412       .  A
C1169     Br1175   1.929       .  S
C1170      C1171   1.413       .  A
C1171      C1172   1.408       .  A
C1171     Br1180   1.931       .  S
C1172     Br1176   1.933       .  S
C1181      C1182   1.465       .  A
C1181      C1186   1.456       .  A
C1182      C1183   1.419       .  A
C1182     Br1194   1.941       .  S
C1183      C1184   1.394       .  A
C1183     Br1198   1.952       .  S
C1184      C1185   1.390       .  A
C1184      C1187   1.484       .  S
C1185      C1186   1.409       .  A
C1185     Br1193   1.944       .  S
C1186     Br1197   1.932       .  S
C1187      C1188   1.405       .  A
C1187      C1192   1.404       .  A
C1188      C1189   1.406       .  A
C1188     Br1199   1.936       .  S
C1189      C1190   1.423       .  A
C1189     Br1195   1.931       .  S
C1190      C1191   1.425       .  A
C1191      C1192   1.407       .  A
C1191     Br1200   1.932       .  S
C1192     Br1196   1.934       .  S
C1201      C1202   1.458       .  A
C1201      C1206   1.463       .  A
C1202      C1203   1.412       .  A
C1202     Br1214   1.929       .  S
C1203      C1204   1.393       .  A
C1203     Br1218   1.947       .  S
C1204      C1205   1.397       .  A
C1204      C1207   1.493       .  S
C1205      C1206   1.421       .  A
C1205     Br1213   1.940       .  S
C1206     Br1217   1.949       .  S
C1207      C1208   1.406       .  A
C1207      C1212   1.406       .  A
C1208      C1209   1.411       .  A
C1208     Br1219   1.934       .  S
C1209      C1210   1.426       .  A
C1209     Br1215   1.934       .  S
C1210      C1211   1.423       .  A
C1211      C1212   1.411       .  A
C1211     Br1220   1.932       .  S
C1212     Br1216   1.931       .  S
C1221      C1222   1.414       .  A
C1221      C1226   1.411       .  A
C1222      C1223   1.417       .  A
C1222     Br1234   1.926       .  S
C1223      C1224   1.411       .  A
C1223     Br1238   1.927       .  S
C1224      C1225   1.412       .  A
C1224      C1227   1.500       .  S
C1225      C1226   1.411       .  A
C1225     Br1233   1.931       .  S
C1226     Br1237   1.924       .  S
C1227      C1228   1.393       .  A
C1227      C1232   1.402       .  A
C1228      C1229   1.406       .  A
C1228     Br1239   1.942       .  S
C1229      C1230   1.457       .  A
C1229     Br1235   1.939       .  S
C1230      C1231   1.452       .  A
C1231      C1232   1.424       .  A
C1231     Br1240   1.931       .  S
C1232     Br1236   1.932       .  S
C1241      C1242   1.415       .  A
C1241      C1246   1.414       .  A
C1242      C1243   1.411       .  A
C1242     Br1254   1.931       .  S
C1243      C1244   1.411       .  A
C1243     Br1258   1.931       .  S
C1244      C1245   1.413       .  A
C1244      C1247   1.500       .  S
C1245      C1246   1.411       .  A
C1245     Br1253   1.928       .  S
C1246     Br1257   1.931       .  S
C1247      C1248   1.401       .  A
C1247      C1252   1.397       .  A
C1248      C1249   1.419       .  A
C1248     Br1259   1.937       .  S
C1249      C1250   1.455       .  A
C1249     Br1255   1.938       .  S
C1250      C1251   1.456       .  A
C1251      C1252   1.413       .  A
C1251     Br1260   1.935       .  S
C1252     Br1256   1.939       .  S
C1261      C1262   1.452       .  A
C1261      C1266   1.452       .  A
C1262      C1263   1.406       .  A
C1262     Br1274   1.933       .  S
C1263      C1264   1.397       .  A
C1263     Br1278   1.939       .  S
C1264      C1265   1.407       .  A
C1264      C1267   1.500       .  S
C1265      C1266   1.420       .  A
C1265     Br1273   1.934       .  S
C1266     Br1277   1.937       .  S
C1267      C1268   1.419       .  A
C1267      C1272   1.415       .  A
C1268      C1269   1.406       .  A
C1268     Br1279   1.929       .  S
C1269      C1270   1.407       .  A
C1269     Br1275   1.934       .  S
C1270      C1271   1.411       .  A
C1271      C1272   1.410       .  A
C1271     Br1280   1.930       .  S
C1272     Br1276   1.930       .  S
C1281      C1282   1.414       .  A
C1281      C1286   1.414       .  A
C1282      C1283   1.405       .  A
C1282     Br1294   1.932       .  S
C1283      C1284   1.410       .  A
C1283     Br1298   1.933       .  S
C1284      C1285   1.412       .  A
C1284      C1287   1.491       .  S
C1285      C1286   1.409       .  A
C1285     Br1293   1.931       .  S
C1286     Br1297   1.931       .  S
C1287      C1288   1.396       .  A
C1287      C1292   1.398       .  A
C1288      C1289   1.411       .  A
C1288     Br1299   1.949       .  S
C1289      C1290   1.453       .  A
C1289     Br1295   1.932       .  S
C1290      C1291   1.465       .  A
C1291      C1292   1.421       .  A
C1291     Br1300   1.956       .  S
C1292     Br1296   1.944       .  S
C1301      C1302   1.409       .  A
C1301      C1306   1.412       .  A
C1302      C1303   1.409       .  A
C1302     Br1314   1.929       .  S
C1303      C1304   1.412       .  A
C1303     Br1318   1.929       .  S
C1304      C1305   1.409       .  A
C1304      C1307   1.492       .  S
C1305      C1306   1.410       .  A
C1305     Br1313   1.928       .  S
C1306     Br1317   1.928       .  S
C1307      C1308   1.393       .  A
C1307      C1312   1.394       .  A
C1308      C1309   1.414       .  A
C1308     Br1319   1.948       .  S
C1309      C1310   1.465       .  A
C1309     Br1315   1.944       .  S
C1310      C1311   1.458       .  A
C1311      C1312   1.416       .  A
C1311     Br1320   1.937       .  S
C1312     Br1316   1.937       .  S
C1321      C1322   1.463       .  A
C1321      C1326   1.454       .  A
C1322      C1323   1.412       .  A
C1322     Br1334   1.946       .  S
C1323      C1324   1.393       .  A
C1323     Br1338   1.945       .  S
C1324      C1325   1.397       .  A
C1324      C1327   1.496       .  S
C1325      C1326   1.420       .  A
C1325     Br1333   1.936       .  S
C1326     Br1337   1.930       .  S
C1327      C1328   1.409       .  A
C1327      C1332   1.412       .  A
C1328      C1329   1.412       .  A
C1328     Br1339   1.929       .  S
C1329      C1330   1.413       .  A
C1329     Br1335   1.923       .  S
C1330      C1331   1.408       .  A
C1331      C1332   1.409       .  A
C1331     Br1340   1.926       .  S
C1332     Br1336   1.927       .  S
C1341      C1342   1.461       .  A
C1341      C1346   1.465       .  A
C1342      C1343   1.416       .  A
C1342     Br1354   1.944       .  S
C1343      C1344   1.392       .  A
C1343     Br1358   1.942       .  S
C1344      C1345   1.396       .  A
C1344      C1347   1.498       .  S
C1345      C1346   1.421       .  A
C1345     Br1353   1.945       .  S
C1346     Br1357   1.950       .  S
C1347      C1348   1.408       .  A
C1347      C1352   1.411       .  A
C1348      C1349   1.412       .  A
C1349      C1350   1.417       .  A
C1349     Br1355   1.932       .  S
C1350      C1351   1.415       .  A
C1351      C1352   1.412       .  A
C1351     Br1360   1.929       .  S
C1352     Br1356   1.931       .  S
C1361      C1362   1.419       .  A
C1361      C1366   1.420       .  A
C1362      C1363   1.417       .  A
C1362     Br1374   1.930       .  S
C1363      C1364   1.409       .  A
C1363     Br1378   1.926       .  S
C1364      C1365   1.409       .  A
C1364      C1367   1.500       .  S
C1365      C1366   1.410       .  A
C1365     Br1373   1.934       .  S
C1366     Br1377   1.929       .  S
C1367      C1368   1.400       .  A
C1367      C1372   1.399       .  A
C1368      C1369   1.420   1_565  A
C1369      C1370   1.452   1_545  A
C1370      C1371   1.442       .  A
C1371      C1372   1.413       .  A
C1371     Br1380   1.929       .  S
C1372     Br1376   1.935       .  S
C1381      C1382   1.456       .  A
C1381      C1386   1.451       .  A
C1382      C1383   1.428       .  A
C1383      C1384   1.404       .  A
C1383     Br1398   1.937       .  S
C1384      C1385   1.401       .  A
C1384      C1387   1.522       .  S
C1385      C1386   1.425       .  A
C1385     Br1393   1.940       .  S
C1386     Br1397   1.917       .  S
C1387      C1388   1.417       .  A
C1387      C1392   1.418       .  A
C1388      C1389   1.421       .  A
C1388     Br1399   1.927       .  S
C1389      C1390   1.414       .  A
C1389     Br1395   1.929       .  S
C1390      C1391   1.410       .  A
C1391      C1392   1.416       .  A
C1391     Br1400   1.927       .  S
C1392     Br1396   1.924       .  S
C1401      C1402   1.411       .  A
C1401      C1406   1.410       .  A
C1402      C1403   1.414       .  A
C1402     Br1414   1.927       .  S
C1403      C1404   1.412       .  A
C1403     Br1418   1.925       .  S
C1404      C1405   1.412       .  A
C1404      C1407   1.497       .  S
C1405      C1406   1.409       .  A
C1405     Br1413   1.930       .  S
C1406     Br1417   1.930       .  S
C1407      C1408   1.408       .  A
C1407      C1412   1.400       .  A
C1408      C1409   1.420       .  A
C1408     Br1419   1.928       .  S
C1409      C1410   1.430       .  A
C1409     Br1415   1.936       .  S
C1410      C1411   1.435       .  A
C1411      C1412   1.408       .  A
C1412     Br1416   1.937       .  S
C1421      C1422   1.413       .  A
C1421      C1426   1.409       .  A
C1422      C1423   1.412       .  A
C1422     Br1434   1.930       .  S
C1423      C1424   1.413       .  A
C1423     Br1438   1.930       .  S
C1424      C1425   1.416       .  A
C1424      C1427   1.502       .  S
C1425      C1426   1.410       .  A
C1425     Br1433   1.927       .  S
C1426     Br1437   1.932       .  S
C1427      C1428   1.408       .  A
C1427      C1432   1.400       .  A
C1428      C1429   1.424       .  A
C1428     Br1439   1.934       .  S
C1429      C1430   1.447       .  A
C1430      C1431   1.442       .  A
C1431      C1432   1.411       .  A
C1431     Br1440   1.932       .  S
C1432     Br1436   1.939       .  S
C1441      C1442   1.422       .  A
C1441      C1446   1.417       .  A
C1442      C1443   1.414       .  A
C1442     Br1454   1.932       .  S
C1443      C1444   1.406       .  A
C1443     Br1458   1.929       .  S
C1444      C1445   1.409       .  A
C1444      C1447   1.492       .  S
C1445      C1446   1.407       .  A
C1445     Br1453   1.932       .  S
C1446     Br1457   1.935       .  S
C1447      C1448   1.401       .  A
C1447      C1452   1.395       .  A
C1448      C1449   1.420       .  A
C1449      C1450   1.454       .  A
C1450      C1451   1.439       .  A
C1451      C1452   1.404       .  A
C1451     Br1460   1.930       .  S
C1452     Br1456   1.937       .  S
C1461      C1462   1.414       .  A
C1461      C1466   1.410       .  A
C1462      C1463   1.412       .  A
C1462     Br1474   1.930       .  S
C1463      C1464   1.410       .  A
C1463     Br1478   1.928   1_565  S
C1464      C1465   1.411       .  A
C1464      C1467   1.494       .  S
C1465      C1466   1.405       .  A
C1465     Br1473   1.924       .  S
C1466     Br1477   1.935       .  S
C1467      C1468   1.396       .  A
C1467      C1472   1.396       .  A
C1468      C1469   1.416       .  A
C1468     Br1479   1.941       .  S
C1469      C1470   1.456       .  A
C1469     Br1475   1.939       .  S
C1470      C1471   1.445       .  A
C1471      C1472   1.416       .  A
C1472     Br1476   1.939       .  S
C1481      C1482   1.431       .  A
C1481      C1486   1.440       .  A
C1482      C1483   1.416       .  A
C1482     Br1494   1.935       .  S
C1483      C1484   1.404       .  A
C1483     Br1498   1.927       .  S
C1484      C1485   1.402       .  A
C1484      C1487   1.499       .  S
C1485      C1486   1.414       .  A
C1485     Br1493   1.938       .  S
C1487      C1488   1.410       .  A
C1487      C1492   1.413       .  A
C1488      C1489   1.413       .  A
C1488     Br1499   1.925       .  S
C1489      C1490   1.411       .  A
C1489     Br1495   1.926       .  S
C1490      C1491   1.411       .  A
C1491      C1492   1.413       .  A
C1491     Br1500   1.928       .  S
C1492     Br1496   1.929       .  S
C1501      C1502   1.407       .  A
C1501      C1506   1.409       .  A
C1502      C1503   1.406       .  A
C1502     Br1514   1.932       .  S
C1503      C1504   1.414       .  A
C1503     Br1518   1.927       .  S
C1504      C1505   1.413       .  A
C1504      C1507   1.494       .  S
C1505      C1506   1.410       .  A
C1505     Br1513   1.930       .  S
C1506     Br1517   1.928       .  S
C1507      C1508   1.399       .  A
C1507      C1512   1.405       .  A
C1508      C1509   1.409       .  A
C1508     Br1519   1.941       .  S
C1509      C1510   1.443       .  A
C1509     Br1515   1.931       .  S
C1510      C1511   1.447       .  A
C1511      C1512   1.419       .  A
C1512     Br1516   1.934       .  S
C1521      C1522   1.455       .  A
C1521      C1526   1.456       .  A
C1522      C1523   1.420       .  A
C1522     Br1534   1.926       .  S
C1523      C1524   1.397       .  A
C1523     Br1538   1.937       .  S
C1524      C1525   1.396       .  A
C1524      C1527   1.500       .  S
C1525      C1526   1.417       .  A
C1525     Br1533   1.943       .  S
C1526     Br1537   1.921       .  S
C1527      C1528   1.411       .  A
C1527      C1532   1.414       .  A
C1528      C1529   1.410       .  A
C1528     Br1539   1.930       .  S
C1529      C1530   1.410       .  A
C1529     Br1535   1.921       .  S
C1530      C1531   1.410       .  A
C1531      C1532   1.413       .  A
C1531     Br1540   1.930       .  S
C1532     Br1536   1.924       .  S
C1541      C1542   1.452       .  A
C1541      C1546   1.448       .  A
C1542      C1543   1.416       .  A
C1542     Br1554   1.934       .  S
C1543      C1544   1.398       .  A
C1543     Br1558   1.939       .  S
C1544      C1545   1.410       .  A
C1544      C1547   1.507       .  S
C1545      C1546   1.427       .  A
C1545     Br1553   1.938       .  S
C1546     Br1557   1.923       .  S
C1547      C1548   1.411       .  A
C1547      C1552   1.417       .  A
C1548      C1549   1.412       .  A
C1548     Br1559   1.931       .  S
C1549      C1550   1.414       .  A
C1549     Br1555   1.921       .  S
C1550      C1551   1.412       .  A
C1551      C1552   1.412       .  A
C1551     Br1560   1.934       .  S
C1552     Br1556   1.926       .  S
C1561      C1562   1.470       .  A
C1561      C1566   1.452       .  A
C1562      C1563   1.422       .  A
C1562     Br1574   1.952       .  S
C1563      C1564   1.395       .  A
C1563     Br1578   1.948       .  S
C1564      C1565   1.393       .  A
C1564      C1567   1.495       .  S
C1565      C1566   1.413       .  A
C1565     Br1573   1.944       .  S
C1566     Br1577   1.925       .  S
C1567      C1568   1.406       .  A
C1567      C1572   1.406       .  A
C1568      C1569   1.415       .  A
C1568     Br1579   1.932       .  S
C1569      C1570   1.428       .  A
C1569     Br1575   1.935       .  S
C1570      C1571   1.426       .  A
C1571      C1572   1.406       .  A
C1571     Br1580   1.935       .  S
C1572     Br1576   1.937       .  S
C1581      C1582   1.424       .  A
C1581      C1586   1.424       .  A
C1582      C1583   1.415       .  A
C1582     Br1594   1.933       .  S
C1583      C1584   1.409       .  A
C1583     Br1598   1.930       .  S
C1584      C1585   1.407       .  A
C1584      C1587   1.503       .  S
C1585      C1586   1.414       .  A
C1585     Br1593   1.932       .  S
C1586     Br1597   1.934       .  S
C1587      C1588   1.394       .  A
C1587      C1592   1.400       .  A
C1588      C1589   1.414       .  A
C1588     Br1599   1.943       .  S
C1589      C1590   1.456       .  A
C1589     Br1595   1.928       .  S
C1590      C1591   1.460       .  A
C1591      C1592   1.427       .  A
C1591     Br1600   1.936       .  S
C1592     Br1596   1.940       .  S
C1601      C1602   1.457       .  A
C1601      C1606   1.460       .  A
C1602      C1603   1.420       .  A
C1602     Br1614   1.930       .  S
C1603      C1604   1.398       .  A
C1603     Br1618   1.936       .  S
C1604      C1605   1.392       .  A
C1604      C1607   1.491       .  S
C1605      C1606   1.404       .  A
C1605     Br1613   1.940       .  S
C1606     Br1617   1.951       .  S
C1607      C1608   1.413       .  A
C1607      C1612   1.409       .  A
C1608      C1609   1.409       .  A
C1608     Br1619   1.929       .  S
C1609      C1610   1.408       .  A
C1609     Br1615   1.928       .  S
C1610      C1611   1.412       .  A
C1611      C1612   1.409       .  A
C1611     Br1620   1.929       .  S
C1612     Br1616   1.928       .  S
C1621      C1622   1.413       .  A
C1621      C1626   1.414       .  A
C1622      C1623   1.412       .  A
C1622     Br1634   1.929       .  S
C1623      C1624   1.412       .  A
C1623     Br1638   1.928       .  S
C1624      C1625   1.411       .  A
C1624      C1627   1.497       .  S
C1625      C1626   1.409       .  A
C1625     Br1633   1.931       .  S
C1626     Br1637   1.930       .  S
C1627      C1628   1.393       .  A
C1627      C1632   1.399       .  A
C1628      C1629   1.412       .  A
C1628     Br1639   1.947       .  S
C1629      C1630   1.458       .  A
C1629     Br1635   1.936       .  S
C1630      C1631   1.463       .  A
C1631      C1632   1.426       .  A
C1631     Br1640   1.944       .  S
C1632     Br1636   1.941       .  S
C1641      C1642   1.412       .  A
C1641      C1646   1.408       .  A
C1642      C1643   1.418       .  A
C1642     Br1654   1.927       .  S
C1643      C1644   1.416       .  A
C1643     Br1658   1.928       .  S
C1644      C1645   1.416       .  A
C1644      C1647   1.511       .  S
C1645      C1646   1.411       .  A
C1645     Br1653   1.923       .  S
C1646     Br1657   1.932       .  S
C1647      C1648   1.398       .  A
C1647      C1652   1.410       .  A
C1648      C1649   1.413       .  A
C1648     Br1659   1.937       .  S
C1649      C1650   1.449       .  A
C1649     Br1655   1.935       .  S
C1650      C1651   1.446       .  A
C1651      C1652   1.431       .  A
C1651     Br1660   1.923       .  S
C1652     Br1656   1.933       .  S
C1661      C1662   1.460       .  A
C1661      C1666   1.453       .  A
C1662      C1663   1.424       .  A
C1662     Br1674   1.913       .  S
C1663      C1664   1.395       .  A
C1663     Br1678   1.951       .  S
C1664      C1665   1.401       .  A
C1664      C1667   1.508       .  S
C1665      C1666   1.423       .  A
C1665     Br1673   1.939       .  S
C1666     Br1677   1.926       .  S
C1667      C1668   1.419       .  A
C1667      C1672   1.414       .  A
C1668      C1669   1.410       .  A
C1668     Br1679   1.926       .  S
C1669      C1670   1.408       .  A
C1669     Br1675   1.932       .  S
C1670      C1671   1.412       .  A
C1671      C1672   1.412       .  A
C1671     Br1680   1.930       .  S
C1672     Br1676   1.930       .  S
