geometry optimzed in LAMMPS
_audit_creation_date              2020-12-01 
_audit_creation_method            'lammps2cif' 
_symmetry_space_group_name_H-M    'P1' 
_symmetry_Int_Tables_number       1 
_symmetry_cell_setting            triclinic 
loop_ 
_symmetry_equiv_pos_as_xyz 
  x,y,z 
_cell_length_a                    58.44794305 
_cell_length_b                    58.2823622532211 
_cell_length_c                    58.21961800111286 
_cell_angle_alpha                 89.94670892804417 
_cell_angle_beta                  89.7961468459988 
_cell_angle_gamma                 89.60053501247204 
loop_ 
_atom_site_label 
_atom_site_type_symbol 
_atom_site_fract_x 
_atom_site_fract_y 
_atom_site_fract_z 
_atom_site_charge 
N1          N  0.33628323  0.88385965  0.73777149    -0.06900
N2          N  0.32130309  0.89467297  0.75100205    -0.59000
N3          N  0.36355942  0.83429810  0.72444803    -0.06600
N4          N  0.36667294  0.81218909  0.72802851    -0.61100
N5          N  0.37434131  0.84634715  0.73996913    -0.06200
N6          N  0.38517432  0.83271059  0.75445664    -0.59000
N7          N  0.32564183  0.87151426  0.72238644    -0.05800
N8          N  0.30333222  0.87358788  0.72466736    -0.61500
C9          C  0.30077740  0.88827245  0.74238296     0.95300
C10         C  0.38042930  0.81142201  0.74662773     0.95100
N11         N  0.37230166  0.83923021  0.65381879    -0.07100
N12         N  0.38036331  0.82188297  0.64107841    -0.59600
N13         N  0.32471274  0.86722927  0.67032390    -0.05200
N14         N  0.30234621  0.86665133  0.66934664    -0.60800
N15         N  0.33357301  0.87763677  0.65234173    -0.07100
N16         N  0.31644805  0.88429743  0.63856898    -0.59900
N17         N  0.36155817  0.83071387  0.67177242    -0.04800
N18         N  0.36195800  0.80822880  0.67173359    -0.60900
Mn19       Mn  0.34373138  0.85069364  0.69728381     1.18400
C20         C  0.37366216  0.80253862  0.65270512     0.97400
C21         C  0.29686582  0.87719099  0.64963886     0.98000
N22         N  0.41136917  0.88321290  0.73781061    -0.07100
N23         N  0.42580585  0.87329460  0.75214239    -0.63400
N24         N  0.38533901  0.93116198  0.71889027    -0.05900
N25         N  0.38305920  0.95366651  0.72014264    -0.64100
N26         N  0.37395538  0.92114710  0.73548172    -0.06600
N27         N  0.36361446  0.93659457  0.74841229    -0.63700
N28         N  0.42250979  0.89309008  0.72097305    -0.05500
N29         N  0.44476779  0.89027144  0.72351007    -0.64400
Mn30       Mn  0.37388022  0.88375766  0.73872153     1.10700
C31         C  0.44665522  0.87784741  0.74302939     0.98600
C32         C  0.36940176  0.95685940  0.73864469     0.98700
N33         N  0.37399676  0.91790296  0.65040824    -0.06600
N34         N  0.36499567  0.93427410  0.63703505    -0.62000
N35         N  0.42192510  0.89099197  0.66832865    -0.06000
N36         N  0.44427193  0.88977572  0.66749307    -0.58700
N37         N  0.41234135  0.87871901  0.65202881    -0.07300
N38         N  0.42887402  0.86855286  0.63972534    -0.61600
N39         N  0.38602839  0.92782121  0.66666170    -0.06300
N40         N  0.38569239  0.95017280  0.66483274    -0.58800
Mn41       Mn  0.37303271  0.87843562  0.65038859     1.20200
Mn42       Mn  0.40424429  0.91098048  0.69357864     1.10100
Cl43       Cl  0.37368825  0.88098134  0.69475839    -0.86700
C44         C  0.37269908  0.95438382  0.64647487     0.95600
C45         C  0.44873006  0.87584290  0.64980490     0.95400
N46         N  0.21501990  0.86679456  0.83726201    -0.06900
N47         N  0.21719775  0.86874792  0.81489481    -0.59000
N48         N  0.23086071  0.84115672  0.88626728    -0.06600
N49         N  0.24414968  0.82657921  0.89736759    -0.61100
N50         N  0.21489351  0.83010448  0.87515745    -0.06200
N51         N  0.21691851  0.80782861  0.87837283    -0.59000
N52         N  0.23124389  0.87791921  0.84791002    -0.05800
N53         N  0.24499143  0.88772834  0.83285285    -0.61500
C54         C  0.23595763  0.88172528  0.81230916     0.95300
C55         C  0.23520574  0.80581231  0.89227160     0.95100
N56         N  0.21427862  0.89087211  0.93371024    -0.07100
N57         N  0.21556287  0.88839018  0.95613908    -0.59600
N58         N  0.23099372  0.91623851  0.88472728    -0.05200
N59         N  0.24472239  0.93082111  0.87426632    -0.60800
N60         N  0.21457113  0.92731902  0.89546516    -0.07100
N61         N  0.21661024  0.94959756  0.89266847    -0.59900
N62         N  0.23060245  0.87936840  0.92329307    -0.04800
N63         N  0.24352216  0.86869901  0.93853338    -0.60900
Mn64       Mn  0.23198318  0.87865744  0.88555463     1.18400
C65         C  0.23369638  0.87428980  0.95894589     0.97400
C66         C  0.23527389  0.95156302  0.87916182     0.98000
N67         N  0.16267910  0.82977615  0.87322962    -0.07100
N68         N  0.16125923  0.80736185  0.87306779    -0.63400
N69         N  0.14561799  0.87695276  0.84551000    -0.05900
N70         N  0.13174995  0.88405765  0.82875673    -0.64100
N71         N  0.16278871  0.86551512  0.83615900    -0.06600
N72         N  0.16105596  0.86450881  0.81368935    -0.63700
N73         N  0.14555920  0.83935488  0.88452762    -0.05500
N74         N  0.13199007  0.82280911  0.89252466    -0.64400
Mn75       Mn  0.18892543  0.84788686  0.85526374     1.10700
C76         C  0.14224967  0.80290307  0.88505889     0.98600
C77         C  0.14175713  0.87608842  0.80889908     0.98700
N78         N  0.16233454  0.92760566  0.89672689    -0.06600
N79         N  0.16031009  0.94998376  0.89748212    -0.62000
N80         N  0.14553315  0.88018344  0.92444891    -0.06000
N81         N  0.13265165  0.87191884  0.94151861    -0.58700
N82         N  0.16242295  0.89190426  0.93348676    -0.07300
N83         N  0.16151930  0.89193999  0.95593173    -0.61600
N84         N  0.14525037  0.91800928  0.88569664    -0.06300
N85         N  0.13109098  0.93454268  0.87851382    -0.58800
Mn86       Mn  0.18844224  0.90963138  0.91491982     1.20200
Mn87       Mn  0.14380122  0.87865491  0.88504148     1.10100
Cl88       Cl  0.18787270  0.87873319  0.88513208    -0.86700
C89         C  0.14095041  0.95440927  0.88614456     0.95600
C90         C  0.14308251  0.87951016  0.96120348     0.95400
N91         N  0.42249068  0.72127024  0.90136075    -0.06900
N92         N  0.44460437  0.72258809  0.89754953    -0.59000
N93         N  0.37423663  0.73625640  0.92902190    -0.06600
N94         N  0.36361999  0.74904740  0.94448124    -0.61100
N95         N  0.38540515  0.71949407  0.93908584    -0.06200
N96         N  0.38269075  0.72042639  0.96151077    -0.59000
N97         N  0.41152531  0.73804650  0.89110718    -0.05800
N98         N  0.42599777  0.75131937  0.88000674    -0.61500
C99         C  0.44652305  0.74119206  0.88397135     0.95300
C100        C  0.36912273  0.73893823  0.96473183     0.95100
N101        N  0.32657000  0.72171673  0.88006769    -0.07100
N102        N  0.30437767  0.72251416  0.88378439    -0.59600
N103        N  0.37435041  0.74003938  0.85377148    -0.05200
N104        N  0.38355057  0.75487832  0.83929132    -0.60800
N105        N  0.36392294  0.72378278  0.84246321    -0.07100
N106        N  0.36585854  0.72695890  0.82022345    -0.59900
N107        N  0.33703167  0.73769232  0.89172540    -0.04800
N108        N  0.32211619  0.74990356  0.90366558    -0.60900
Mn109      Mn  0.37429550  0.73909364  0.89147102     1.18400
C110        C  0.30181306  0.73996368  0.89877086     0.97400
C111        C  0.37793729  0.74643773  0.81833716     0.98000
N112        N  0.38793341  0.66718945  0.93713465    -0.07100
N113        N  0.38816514  0.66511605  0.95954107    -0.63400
N114        N  0.41484369  0.65233078  0.88830278    -0.05900
N115        N  0.43197493  0.63941041  0.87996838    -0.64100
N116        N  0.42375738  0.66916420  0.90031943    -0.06600
N117        N  0.44613011  0.66820085  0.90042430    -0.63700
N118        N  0.37667439  0.65043553  0.92719685    -0.05500
N119        N  0.36873497  0.63650182  0.94358956    -0.64400
Mn120      Mn  0.40507146  0.69433283  0.91969223     1.10700
C121        C  0.37621748  0.64608972  0.96376292     0.98600
C122        C  0.45155771  0.64977293  0.88779260     0.98700
N123        N  0.36269062  0.67144025  0.83955595    -0.06600
N124        N  0.36070992  0.67024379  0.81716866    -0.62000
N125        N  0.33616007  0.65209324  0.88691288    -0.06000
N126        N  0.31947273  0.63821054  0.89401380    -0.58700
N127        N  0.32681168  0.66980824  0.87640551    -0.07300
N128        N  0.30447521  0.66852881  0.87615205    -0.61600
N129        N  0.37347835  0.65344180  0.84804342    -0.06300
N130        N  0.37893380  0.63945612  0.83066133    -0.58800
Mn131      Mn  0.34494977  0.69680092  0.85944690     1.20200
Mn132      Mn  0.37537525  0.65033024  0.88755372     1.10100
Cl133      Cl  0.37497169  0.69466881  0.88949634    -0.86700
C134        C  0.37081872  0.65038730  0.81135784     0.95600
C135        C  0.29964679  0.64892253  0.88707600     0.95400
N136        N  0.32575307  0.04294624  0.89199280    -0.06900
N137        N  0.30345933  0.03992504  0.89210281    -0.59000
N138        N  0.37480223  0.02437454  0.91483888    -0.06600
N139        N  0.38257492  0.00751955  0.92775548    -0.61100
N140        N  0.36435019  0.03986400  0.92746966    -0.06200
N141        N  0.36459181  0.03378452  0.94929654    -0.59000
N142        N  0.33598890  0.02726334  0.87945967    -0.05800
N143        N  0.32085096  0.01313279  0.87072146    -0.61500
C144        C  0.30060464  0.02128688  0.87875101     0.95300
C145        C  0.37626437  0.01369653  0.94921922     0.95100
N146        N  0.42158926  0.04180874  0.86527620    -0.07100
N147        N  0.44384505  0.03894435  0.86740182    -0.59600
N148        N  0.37173281  0.02824858  0.84005892    -0.05200
N149        N  0.36056459  0.01525661  0.82542558    -0.60800
N150        N  0.38279596  0.04444046  0.82914870    -0.07100
N151        N  0.37938991  0.04289334  0.80680044    -0.59900
N152        N  0.41056195  0.02549928  0.87602738    -0.04800
N153        N  0.42506744  0.01112392  0.88578716    -0.60900
Mn154      Mn  0.37328756  0.02562776  0.87746783     1.18400
C155        C  0.44581094  0.01971752  0.88019741     0.97400
C156        C  0.36517397  0.02478860  0.80471806     0.98000
N157        N  0.36422055  0.09271283  0.93035454    -0.07100
N158        N  0.36495691  0.09294722  0.95284202    -0.63400
N159        N  0.33536896  0.11274921  0.88429229    -0.05900
N160        N  0.31852210  0.12663032  0.87709886    -0.64100
N161        N  0.32620168  0.09541249  0.89546196    -0.06600
N162        N  0.30381051  0.09703569  0.89618806    -0.63700
N163        N  0.37517922  0.11022943  0.92131310    -0.05500
N164        N  0.38364489  0.12291090  0.93838192    -0.64400
Mn165      Mn  0.34504165  0.06782010  0.91152120     1.10700
C166        C  0.37704225  0.11165617  0.95805312     0.98600
C167        C  0.29878250  0.11644258  0.88482604     0.98700
N168        N  0.38507862  0.09685278  0.83177486    -0.06600
N169        N  0.38415238  0.09908498  0.80944126    -0.62000
N170        N  0.41417566  0.11115985  0.87902655    -0.06000
N171        N  0.43123388  0.12393763  0.88712842    -0.58700
N172        N  0.42304745  0.09466489  0.86621075    -0.07300
N173        N  0.44547287  0.09595259  0.86505086    -0.61600
N174        N  0.37412723  0.11359820  0.84243466    -0.06300
N175        N  0.36524310  0.12773601  0.82669517    -0.58800
Mn176      Mn  0.40339756  0.06941796  0.84787106     1.20200
Mn177      Mn  0.37475751  0.11364666  0.88185870     1.10100
Cl178      Cl  0.37417582  0.06958594  0.87973135    -0.86700
C179        C  0.37186767  0.11821425  0.80615926     0.95600
C180        C  0.45069051  0.11410456  0.87807767     0.95400
N181        N  0.38202041  0.82808466  0.05139587    -0.06900
N182        N  0.37923842  0.80567957  0.05061663    -0.59000
N183        N  0.40586092  0.87572370  0.03123257    -0.06600
N184        N  0.41877706  0.88528893  0.01545490    -0.61100
N185        N  0.41842918  0.86604825  0.04714106    -0.06200
N186        N  0.44032302  0.86869349  0.04247814    -0.59000
N187        N  0.36947752  0.83828448  0.03578637    -0.05800
N188        N  0.35796249  0.82311115  0.02386056    -0.61500
C189        C  0.36390071  0.80284716  0.03355993     0.95300
C190        C  0.44023087  0.88101790  0.02275056     0.95100
N191        N  0.35885402  0.92512397  0.04685584    -0.07100
N192        N  0.35893776  0.94697028  0.04078169    -0.59600
N193        N  0.33191947  0.87585281  0.03547129    -0.05200
N194        N  0.31687585  0.86628744  0.02182720    -0.60800
N195        N  0.32161047  0.88842804  0.05104290    -0.07100
N196        N  0.29924049  0.88769965  0.04841292    -0.59900
N197        N  0.36869584  0.91248617  0.03099074    -0.04800
N198        N  0.37589253  0.92524547  0.01387311    -0.60900
Mn199      Mn  0.36894483  0.87538558  0.03270421     1.18400
C200        C  0.37005615  0.94668438  0.02035861     0.97400
C201        C  0.29649984  0.87372101  0.03015742     0.98000
N202        N  0.42156858  0.86696556  0.10023665    -0.07100
N203        N  0.44398486  0.86740405  0.10059047    -0.63400
N204        N  0.37424320  0.83935668  0.11986772    -0.05900
N205        N  0.36547450  0.82240871  0.13265205    -0.64100
N206        N  0.38605132  0.83003392  0.10296562    -0.06600
N207        N  0.38569718  0.80763212  0.10373952    -0.63700
N208        N  0.41256499  0.87823580  0.11770392    -0.05500
N209        N  0.42959602  0.88672070  0.13036327    -0.64400
Mn210      Mn  0.40246061  0.84769202  0.07548319     1.10700
C211        C  0.44924594  0.87972340  0.11925374     0.98600
C212        C  0.37292852  0.80255076  0.12208710     0.98700
N213        N  0.32404302  0.89173836  0.10310726    -0.06600
N214        N  0.30172432  0.89195384  0.10469374    -0.62000
N215        N  0.37203970  0.91841574  0.11763459    -0.06000
N216        N  0.38030930  0.93560482  0.13027406    -0.58700
N217        N  0.36054904  0.92725955  0.10028456    -0.07300
N218        N  0.36060103  0.94967229  0.10073488    -0.61600
N219        N  0.33363919  0.88037272  0.12013666    -0.06300
N220        N  0.31703359  0.87254746  0.13387000    -0.58800
Mn221      Mn  0.34121982  0.90846923  0.07549648     1.20200
Mn222      Mn  0.37309457  0.87904393  0.12067213     1.10100
Cl223      Cl  0.37146714  0.87771624  0.07635584    -0.86700
C224        C  0.29709872  0.88009018  0.12376418     0.95600
C225        C  0.37287141  0.95514603  0.11928081     0.95400
N226        N  0.53561483  0.88924684  0.83528061    -0.06900
N227        N  0.53263452  0.88710550  0.81293180    -0.59000
N228        N  0.51920654  0.91654299  0.88326080    -0.06600
N229        N  0.50501589  0.93128189  0.89296877    -0.61100
N230        N  0.53523113  0.92739924  0.87198207    -0.06200
N231        N  0.53238739  0.94977058  0.87363094    -0.59000
N232        N  0.51969192  0.87829506  0.84660312    -0.05800
N233        N  0.50545303  0.86837312  0.83228427    -0.61500
C234        C  0.51389566  0.87372871  0.81129252     0.95300
C235        C  0.51361325  0.95196804  0.88706542     0.95100
N236        N  0.53529820  0.86924857  0.93289859    -0.07100
N237        N  0.53107993  0.87034474  0.95509050    -0.59600
N238        N  0.52042232  0.84183976  0.88508519    -0.05200
N239        N  0.50625940  0.82687463  0.87612742    -0.60800
N240        N  0.53657820  0.83129028  0.89661231    -0.07100
N241        N  0.53389144  0.80894595  0.89577397    -0.59900
N242        N  0.51923437  0.87979599  0.92126906    -0.04800
N243        N  0.50364652  0.88829996  0.93524717    -0.60900
Mn244      Mn  0.51888502  0.87911830  0.88402520     1.18400
C245        C  0.51127096  0.88228731  0.95632960     0.97400
C246        C  0.51493813  0.80640590  0.88296937     0.98000
N247        N  0.58750930  0.92741236  0.87111900    -0.07100
N248        N  0.58870825  0.94974257  0.86961963    -0.63400
N249        N  0.60537089  0.87944684  0.84564995    -0.05900
N250        N  0.61910142  0.87197562  0.82879403    -0.64100
N251        N  0.58777297  0.89007799  0.83626454    -0.06600
N252        N  0.58891777  0.89006019  0.81389956    -0.63700
N253        N  0.60490987  0.91869101  0.88258145    -0.05500
N254        N  0.61846224  0.93587677  0.88907069    -0.64400
Mn255      Mn  0.56157469  0.90867710  0.85352368     1.10700
C256        C  0.60784239  0.95528307  0.88077512     0.98600
C257        C  0.60832784  0.87893453  0.80898802     0.98700
N258        N  0.58886947  0.83104714  0.89879999    -0.06600
N259        N  0.59046039  0.80864643  0.89975869    -0.62000
N260        N  0.60503290  0.87932284  0.92478139    -0.06000
N261        N  0.61847193  0.88663502  0.94179878    -0.58700
N262        N  0.58755798  0.86849502  0.93398309    -0.07300
N263        N  0.58854577  0.86822348  0.95641471    -0.61600
N264        N  0.60608797  0.84009197  0.88742530    -0.06300
N265        N  0.61989080  0.82312981  0.88034309    -0.58800
Mn266      Mn  0.56210637  0.84990393  0.91572354     1.20200
Mn267      Mn  0.60719035  0.87942290  0.88512767     1.10100
Cl268      Cl  0.56294221  0.87927858  0.88461549    -0.86700
C269        C  0.60970783  0.80345414  0.88827622     0.95600
C270        C  0.60771197  0.87945386  0.96159714     0.95400
N271        N  0.87389184  0.34095874  0.65238384    -0.06900
N272        N  0.88188127  0.32358876  0.63957588    -0.59000
N273        N  0.82652405  0.36919039  0.66917362    -0.06600
N274        N  0.80415433  0.36933868  0.66847292    -0.61100
N275        N  0.83564405  0.38020145  0.65170398    -0.06200
N276        N  0.81860696  0.38816354  0.63854654    -0.59000
N277        N  0.86263945  0.33232289  0.66994295    -0.05800
N278        N  0.86262821  0.30985337  0.66957916    -0.61500
C279        C  0.87460433  0.30413393  0.65076345     0.95300
C280        C  0.79891239  0.38110674  0.64948328     0.95100
N281        N  0.83719123  0.38348860  0.73707328    -0.07100
N282        N  0.82229715  0.39350530  0.75092203    -0.59600
N283        N  0.86363624  0.33442743  0.72215048    -0.05200
N284        N  0.86445952  0.31218800  0.72558364    -0.60800
N285        N  0.87411144  0.34543986  0.73861368    -0.07100
N286        N  0.88225352  0.33078229  0.75386420    -0.59900
N287        N  0.82649154  0.37185572  0.72120180    -0.04800
N288        N  0.80417510  0.37366084  0.72383020    -0.60900
Mn289      Mn  0.84477642  0.35182595  0.69556675     1.18400
C290        C  0.80168616  0.38725781  0.74239208     0.97400
C291        C  0.87600047  0.31010249  0.74540305     0.98000
N292        N  0.87684044  0.42013921  0.65105315    -0.07100
N293        N  0.86822895  0.43711416  0.63814798    -0.63400
N294        N  0.92412363  0.39157903  0.66901539    -0.05900
N295        N  0.94644578  0.38959077  0.66892792    -0.64100
N296        N  0.91469646  0.38007842  0.65207390    -0.06600
N297        N  0.93135873  0.36983978  0.63995538    -0.63700
N298        N  0.88878611  0.42939323  0.66774763    -0.05500
N299        N  0.88869571  0.45185048  0.66664869    -0.64400
Mn300      Mn  0.87525657  0.38045384  0.64996492     1.10700
C301        C  0.87596052  0.45693952  0.64827094     0.98600
C302        C  0.95113489  0.37610965  0.65093584     0.98700
N303        N  0.91209323  0.38208537  0.73804349    -0.06600
N304        N  0.92616897  0.37140821  0.75216883    -0.62000
N305        N  0.88708161  0.43059495  0.71990337    -0.06000
N306        N  0.88540910  0.45305425  0.72155382    -0.58700
N307        N  0.87536950  0.42055064  0.73624821    -0.07300
N308        N  0.86545581  0.43606620  0.74949149    -0.61600
N309        N  0.92360351  0.39221548  0.72159330    -0.06300
N310        N  0.94577319  0.38875319  0.72411508    -0.58800
Mn311      Mn  0.87464685  0.38300630  0.73849036     1.20200
Mn312      Mn  0.90616868  0.41113300  0.69445147     1.10100
Cl313      Cl  0.87518851  0.38164385  0.69438479    -0.86700
C314        C  0.94712242  0.37546021  0.74309137     0.95600
C315        C  0.87189547  0.45632826  0.74006718     0.95400
N316        N  0.91851068  0.21813593  0.89601211    -0.06900
N317        N  0.94056560  0.22209242  0.89458160    -0.59000
N318        N  0.86934107  0.23078513  0.92364356    -0.06600
N319        N  0.85885762  0.24376119  0.93902628    -0.61100
N320        N  0.88161068  0.21489006  0.93379183    -0.06200
N321        N  0.87977383  0.21665191  0.95626499    -0.59000
N322        N  0.90672647  0.23456834  0.88610558    -0.05800
N323        N  0.92064393  0.25026660  0.87769970    -0.61500
C324        C  0.94173367  0.24219304  0.88325528     0.95300
C325        C  0.86547903  0.23466694  0.95941302     0.95100
N326        N  0.82206121  0.21375545  0.87403041    -0.07100
N327        N  0.79965848  0.21533345  0.87556386    -0.59600
N328        N  0.86924116  0.23406628  0.84892776    -0.05200
N329        N  0.87840175  0.24950565  0.83526877    -0.60800
N330        N  0.85916942  0.21804435  0.83692848    -0.07100
N331        N  0.86109142  0.22225246  0.81477279    -0.59900
N332        N  0.83191778  0.22989043  0.88607926    -0.04800
N333        N  0.81635259  0.24288709  0.89617715    -0.60900
Mn334      Mn  0.86918923  0.23325845  0.88623839     1.18400
C335        C  0.79633040  0.23336059  0.88970230     0.97400
C336        C  0.87348449  0.24171362  0.81404225     0.98000
N337        N  0.88589729  0.16280760  0.93178019    -0.07100
N338        N  0.88612326  0.16112882  0.95418070    -0.63400
N339        N  0.91340849  0.14849932  0.88337741    -0.05900
N340        N  0.93058506  0.13587481  0.87483238    -0.64100
N341        N  0.92206926  0.16558530  0.89522338    -0.06600
N342        N  0.94452064  0.16496841  0.89524467    -0.63700
N343        N  0.87520157  0.14555280  0.92209649    -0.05500
N344        N  0.86781495  0.13155925  0.93871516    -0.64400
Mn345      Mn  0.90221664  0.19032056  0.91428370     1.10700
C346        C  0.87493341  0.14173890  0.95875829     0.98600
C347        C  0.94994971  0.14655855  0.88252579     0.98700
N348        N  0.86149812  0.16558985  0.83422078    -0.06600
N349        N  0.86250871  0.16587516  0.81174008    -0.62000
N350        N  0.83478684  0.14486285  0.88142562    -0.06000
N351        N  0.81881229  0.13066517  0.88958249    -0.58700
N352        N  0.82450442  0.16150286  0.87001777    -0.07300
N353        N  0.80218946  0.15903131  0.86981024    -0.61600
N354        N  0.87384432  0.14879051  0.84304598    -0.06300
N355        N  0.88380043  0.13724337  0.82585691    -0.58800
Mn356      Mn  0.84159702  0.18965765  0.85354483     1.20200
Mn357      Mn  0.87428927  0.14521414  0.88246584     1.10100
Cl358      Cl  0.87181218  0.18937003  0.88414503    -0.86700
C359        C  0.87640268  0.14834370  0.80641234     0.95600
C360        C  0.79851704  0.13989476  0.88194443     0.95400
N361        N  0.71270029  0.36836179  0.83248140    -0.06900
N362        N  0.71489567  0.37314514  0.81041097    -0.59000
N363        N  0.72797448  0.33894521  0.88007523    -0.06600
N364        N  0.74130713  0.32335914  0.88962405    -0.61100
N365        N  0.71157655  0.32917499  0.86848366    -0.06200
N366        N  0.71313764  0.30671705  0.86990690    -0.59000
N367        N  0.72927036  0.37772002  0.84419424    -0.05800
N368        N  0.74314349  0.38906618  0.83054484    -0.61500
C369        C  0.73382039  0.38643549  0.80954831     0.95300
C370        C  0.73177799  0.30334394  0.88304599     0.95100
N371        N  0.71454213  0.38683939  0.93031234    -0.07100
N372        N  0.71887024  0.38562173  0.95243615    -0.59600
N373        N  0.73071698  0.41320308  0.88216519    -0.05200
N374        N  0.74585668  0.42680133  0.87263720    -0.60800
N375        N  0.71557912  0.42512956  0.89381506    -0.07100
N376        N  0.72021847  0.44722608  0.89271866    -0.59900
N377        N  0.72962280  0.37490247  0.91856218    -0.04800
N378        N  0.74460648  0.36522014  0.93238486    -0.60900
Mn379      Mn  0.73014223  0.37603072  0.88133232     1.18400
C380        C  0.73746628  0.37184623  0.95344218     0.97400
C381        C  0.73888897  0.44798854  0.87899162     0.98000
N382        N  0.65975139  0.33077383  0.86840131    -0.07100
N383        N  0.65852198  0.30831134  0.86827869    -0.63400
N384        N  0.64363853  0.38010269  0.84380654    -0.05900
N385        N  0.63028371  0.38947610  0.82771687    -0.64100
N386        N  0.66018264  0.36852183  0.83352973    -0.06600
N387        N  0.65853529  0.36934818  0.81113367    -0.63700
N388        N  0.64368610  0.34018393  0.88134330    -0.05500
N389        N  0.63115623  0.32337263  0.89053208    -0.64400
Mn390      Mn  0.68602526  0.34904615  0.85035674     1.10700
C391        C  0.64080322  0.30352104  0.88201743     0.98600
C392        C  0.64005318  0.38236274  0.80746156     0.98700
N393        N  0.66318012  0.42765852  0.89607804    -0.06600
N394        N  0.66292660  0.45011728  0.89595475    -0.62000
N395        N  0.64493622  0.38017928  0.92285366    -0.06000
N396        N  0.63123439  0.37277709  0.93965032    -0.58700
N397        N  0.66233257  0.39091460  0.93221980    -0.07300
N398        N  0.66092705  0.39120464  0.95473815    -0.61600
N399        N  0.64561346  0.41913194  0.88495166    -0.06300
N400        N  0.63295296  0.43652408  0.87694162    -0.58800
Mn401      Mn  0.68891588  0.40789660  0.91334533     1.20200
Mn402      Mn  0.64266323  0.37984073  0.88333177     1.10100
Cl403      Cl  0.68641332  0.37819143  0.88217367    -0.86700
C404        C  0.64417588  0.45588200  0.88404956     0.95600
C405        C  0.64162312  0.37987882  0.95951194     0.95400
N406        N  0.03860455  0.39008168  0.83279831    -0.06900
N407        N  0.03562306  0.38748598  0.81049847    -0.59000
N408        N  0.02353156  0.41771501  0.88151444    -0.06600
N409        N  0.01057822  0.43277095  0.89243660    -0.61100
N410        N  0.03978560  0.42810546  0.87008674    -0.06200
N411        N  0.03840013  0.45046764  0.87298670    -0.59000
N412        N  0.02224452  0.37983786  0.84423618    -0.05800
N413        N  0.00784959  0.36993887  0.83001508    -0.61500
C414        C  0.01638036  0.37482427  0.80892619     0.95300
C415        C  0.02026871  0.45314518  0.88720911     0.95100
N416        N  0.03848594  0.36894164  0.93002232    -0.07100
N417        N  0.03581045  0.37072950  0.95236976    -0.59600
N418        N  0.02103921  0.34323936  0.88210586    -0.05200
N419        N  0.00532077  0.32966681  0.87356000    -0.60800
N420        N  0.03673388  0.33132411  0.89298076    -0.07100
N421        N  0.03191971  0.30925040  0.89227080    -0.59900
N422        N  0.02259938  0.38058775  0.91920086    -0.04800
N423        N  0.00858248  0.39046360  0.93403369    -0.60900
Mn424      Mn  0.02153425  0.38045216  0.88174555     1.18400
C425        C  0.01708919  0.38413094  0.95474947     0.97400
C426        C  0.01247733  0.30848235  0.87972182     0.98000
N427        N  0.09185180  0.42709286  0.86882716    -0.07100
N428        N  0.09325476  0.44953362  0.86872131    -0.63400
N429        N  0.10832800  0.37847701  0.84286181    -0.05900
N430        N  0.12164864  0.36945351  0.82649778    -0.64100
N431        N  0.09148551  0.38992992  0.83302866    -0.06600
N432        N  0.09290677  0.38918225  0.81059316    -0.63700
N433        N  0.10852861  0.41757013  0.88073027    -0.05500
N434        N  0.12175951  0.43425987  0.88898118    -0.64400
Mn435      Mn  0.06547057  0.40899653  0.85081818     1.10700
C436        C  0.11182909  0.45427258  0.88122631     0.98600
C437        C  0.11161242  0.37646277  0.80640830     0.98700
N438        N  0.09012325  0.32961747  0.89391283    -0.06600
N439        N  0.09160353  0.30721493  0.89461638    -0.62000
N440        N  0.10794402  0.37684277  0.92155852    -0.06000
N441        N  0.12179341  0.38345476  0.93851136    -0.58700
N442        N  0.09053364  0.36581434  0.93063640    -0.07300
N443        N  0.09198064  0.36477882  0.95305994    -0.61600
N444        N  0.10791438  0.33868792  0.88344477    -0.06300
N445        N  0.12200473  0.32176127  0.87680740    -0.58800
Mn446      Mn  0.06399900  0.34865194  0.91192611     1.20200
Mn447      Mn  0.10981529  0.37800614  0.88217020     1.10100
Cl448      Cl  0.06545754  0.37896291  0.88163253    -0.86700
C449        C  0.11137318  0.30206145  0.88399364     0.95600
C450        C  0.11139353  0.37567902  0.95823276     0.95400
N451        N  0.88662200  0.32535921  0.04494990    -0.06900
N452        N  0.88245379  0.30312558  0.04407301    -0.59000
N453        N  0.91296085  0.37323750  0.02621678    -0.06600
N454        N  0.92677533  0.38422990  0.01218545    -0.61100
N455        N  0.92456968  0.36268910  0.04233000    -0.06200
N456        N  0.94668824  0.36620565  0.03960302    -0.59000
N457        N  0.87521962  0.33627128  0.02891980    -0.05800
N458        N  0.86296271  0.32180773  0.01680193    -0.61500
C459        C  0.86740081  0.30119899  0.02657295     0.95300
C460        C  0.94775793  0.37993309  0.02086522     0.95100
N461        N  0.86604667  0.42304690  0.04183738    -0.07100
N462        N  0.86752218  0.44519854  0.03766112    -0.59600
N463        N  0.83890101  0.37416225  0.02863361    -0.05200
N464        N  0.82408046  0.36420074  0.01503356    -0.60800
N465        N  0.82831454  0.38638208  0.04428864    -0.07100
N466        N  0.80599718  0.38521915  0.04165972    -0.59900
N467        N  0.87636166  0.41119346  0.02567004    -0.04800
N468        N  0.88516196  0.42504216  0.01006343    -0.60900
Mn469      Mn  0.87590079  0.37362684  0.02649942     1.18400
C470        C  0.87947475  0.44622817  0.01780537     0.97400
C471        C  0.80362522  0.37088411  0.02366518     0.98000
N472        N  0.92578592  0.36321550  0.09518644    -0.07100
N473        N  0.94818812  0.36322882  0.09564721    -0.63400
N474        N  0.87803304  0.33689205  0.11439648    -0.05900
N475        N  0.86953315  0.32033148  0.12787653    -0.64100
N476        N  0.88946438  0.32716270  0.09743250    -0.06600
N477        N  0.88918536  0.30479460  0.09892841    -0.63700
N478        N  0.91685763  0.37500196  0.11238006    -0.05500
N479        N  0.93401341  0.38332495  0.12499202    -0.64400
Mn480      Mn  0.90695111  0.34434940  0.06999691     1.10700
C481        C  0.95358686  0.37573437  0.11409319     0.98600
C482        C  0.87679341  0.30022895  0.11772609     0.98700
N483        N  0.82872257  0.38933849  0.09629886    -0.06600
N484        N  0.80635238  0.38954340  0.09718816    -0.62000
N485        N  0.87614524  0.41601273  0.11244336    -0.06000
N486        N  0.88271270  0.43319189  0.12609801    -0.58700
N487        N  0.86536446  0.42490833  0.09469273    -0.07300
N488        N  0.86438600  0.44730160  0.09572636    -0.61600
N489        N  0.83774796  0.37796258  0.11362550    -0.06300
N490        N  0.82068540  0.37010561  0.12680698    -0.58800
Mn491      Mn  0.84708117  0.40615162  0.06932182     1.20200
Mn492      Mn  0.87725271  0.37646841  0.11499721     1.10100
Cl493      Cl  0.87687457  0.37520971  0.07048301    -0.86700
C494        C  0.80104367  0.37760371  0.11606944     0.95600
C495        C  0.87520405  0.45276794  0.11514822     0.95400
N496        N  0.83211613  0.53874228  0.88948479    -0.06900
N497        N  0.81031106  0.53324215  0.88973654    -0.59000
N498        N  0.88130599  0.52362815  0.91482514    -0.06600
N499        N  0.89105443  0.50869648  0.92882138    -0.61100
N500        N  0.86946741  0.53888294  0.92648296    -0.06200
N501        N  0.87092892  0.53481416  0.94865359    -0.59000
N502        N  0.84405629  0.52367894  0.87773237    -0.05800
N503        N  0.83069052  0.50762053  0.86951552    -0.61500
C504        C  0.80971241  0.51397058  0.87697657     0.95300
C505        C  0.88469088  0.51614580  0.94993236     0.95100
N506        N  0.92872083  0.54259501  0.86605015    -0.07100
N507        N  0.95107228  0.53993985  0.86778241    -0.59600
N508        N  0.88045856  0.52692406  0.84021676    -0.05200
N509        N  0.86885728  0.51413686  0.82586435    -0.60800
N510        N  0.89059202  0.54371487  0.82929305    -0.07100
N511        N  0.88611654  0.54276706  0.80711610    -0.59900
N512        N  0.91809574  0.52607345  0.87684897    -0.04800
N513        N  0.93284514  0.51176547  0.88621656    -0.60900
Mn514      Mn  0.88111909  0.52438012  0.87737725     1.18400
C515        C  0.95338291  0.52062749  0.88044425     0.97400
C516        C  0.87220675  0.52438742  0.80534263     0.98000
N517        N  0.86514943  0.59126625  0.92928190    -0.07100
N518        N  0.86411262  0.59209866  0.95177086    -0.63400
N519        N  0.83767737  0.60933494  0.88175466    -0.05900
N520        N  0.82049261  0.62250520  0.87403226    -0.64100
N521        N  0.82886134  0.59144677  0.89236649    -0.06600
N522        N  0.80637016  0.59203610  0.89220992    -0.63700
N523        N  0.87563236  0.60923142  0.92064169    -0.05500
N524        N  0.88189903  0.62283462  0.93793683    -0.64400
Mn525      Mn  0.84873891  0.56510197  0.90951905     1.10700
C526        C  0.87453693  0.61170486  0.95740118     0.98600
C527        C  0.80092037  0.61131433  0.88077180     0.98700
N528        N  0.89100346  0.59646343  0.83152427    -0.06600
N529        N  0.89108927  0.59921116  0.80916680    -0.62000
N530        N  0.91686476  0.61119298  0.88052601    -0.06000
N531        N  0.93317588  0.62399237  0.89004925    -0.58700
N532        N  0.92685324  0.59518645  0.86789706    -0.07300
N533        N  0.94919900  0.59670731  0.86833598    -0.61600
N534        N  0.87875274  0.61243108  0.84197151    -0.06300
N535        N  0.86988526  0.62639072  0.82613358    -0.58800
Mn536      Mn  0.90957903  0.56951456  0.84834638     1.20200
Mn537      Mn  0.87722843  0.61225970  0.88130322     1.10100
Cl538      Cl  0.87919930  0.56832104  0.87915630    -0.86700
C539        C  0.87797972  0.61778875  0.80574555     0.95600
C540        C  0.95330851  0.61456055  0.88207873     0.95400
N541        N  0.83789913  0.87016422  0.23966053    -0.06900
N542        N  0.82353176  0.87780334  0.25539068    -0.59000
N543        N  0.86481536  0.82383602  0.21891192    -0.06600
N544        N  0.86760006  0.80139405  0.21992037    -0.61100
N545        N  0.87618945  0.83391524  0.23536645    -0.06200
N546        N  0.88701163  0.81858431  0.24795719    -0.59000
N547        N  0.82677411  0.86009133  0.22302796    -0.05800
N548        N  0.80459299  0.86041247  0.22695912    -0.61500
C549        C  0.80290471  0.87154188  0.24714418     0.95300
C550        C  0.88156928  0.79831988  0.23810209     0.95100
N551        N  0.87297472  0.83784511  0.15030691    -0.07100
N552        N  0.88066978  0.82169634  0.13578198    -0.59600
N553        N  0.82531339  0.86431079  0.17077167    -0.05200
N554        N  0.80292767  0.86611507  0.17119013    -0.60800
N555        N  0.83439912  0.87695915  0.15439070    -0.07100
N556        N  0.81753002  0.88775230  0.14322282    -0.59900
N557        N  0.86182259  0.82760343  0.16701676    -0.04800
N558        N  0.86160922  0.80532210  0.16451969    -0.60900
Mn559      Mn  0.84447168  0.84381529  0.19478738     1.18400
C560        C  0.87323421  0.80131824  0.14512580     0.97400
C561        C  0.79789245  0.88065284  0.15406136     0.98000
N562        N  0.91231961  0.87206672  0.23783708    -0.07100
N563        N  0.92724348  0.86153833  0.25111663    -0.63400
N564        N  0.88444014  0.92146163  0.22684342    -0.05900
N565        N  0.88205993  0.94329543  0.23258598    -0.64100
N566        N  0.87412087  0.90841613  0.24198662    -0.06600
N567        N  0.86447205  0.92098075  0.25816947    -0.63700
N568        N  0.92283583  0.88478519  0.22261517    -0.05500
N569        N  0.94516584  0.88315028  0.22511827    -0.64400
Mn570      Mn  0.87516427  0.87109662  0.23949011     1.10700
C571        C  0.94774688  0.86860657  0.24299126     0.98600
C572        C  0.86928351  0.94278132  0.25212857     0.98700
N573        N  0.87425127  0.91661922  0.15547258    -0.06600
N574        N  0.86600292  0.93372859  0.14261969    -0.62000
N575        N  0.92249822  0.88945362  0.17022317    -0.06000
N576        N  0.94493392  0.88906727  0.16881556    -0.58700
N577        N  0.91305794  0.87844822  0.15293021    -0.07300
N578        N  0.92968391  0.87026937  0.13934593    -0.61600
N579        N  0.88506233  0.92543151  0.17317037    -0.06300
N580        N  0.88450809  0.94792683  0.17274991    -0.58800
Mn581      Mn  0.87372328  0.87747961  0.15156203     1.20200
Mn582      Mn  0.90389500  0.90572848  0.19816610     1.10100
Cl583      Cl  0.87431677  0.87462988  0.19577931    -0.86700
C584        C  0.87258420  0.95328786  0.15379403     0.95600
C585        C  0.94960344  0.87714563  0.14963197     0.95400
N586        N  0.92077658  0.71538350  0.39100874    -0.06900
N587        N  0.94310518  0.71809733  0.39030932    -0.59000
N588        N  0.87403031  0.73538182  0.41734432    -0.06600
N589        N  0.86686366  0.75158516  0.43147563    -0.61100
N590        N  0.88426512  0.71889648  0.42878443    -0.06200
N591        N  0.88439710  0.72343223  0.45091096    -0.59000
N592        N  0.91040876  0.73151154  0.37921634    -0.05800
N593        N  0.92548982  0.74551556  0.37010427    -0.61500
C594        C  0.94586770  0.73668679  0.37679455     0.95300
C595        C  0.87350610  0.74382809  0.45234517     0.95100
N596        N  0.82397131  0.72002366  0.37045872    -0.07100
N597        N  0.80191731  0.72358368  0.37366374    -0.59600
N598        N  0.87275623  0.73262939  0.34245524    -0.05200
N599        N  0.88484716  0.74442415  0.32746609    -0.60800
N600        N  0.86080770  0.71685218  0.33202284    -0.07100
N601        N  0.86451155  0.71745791  0.30966240    -0.59900
N602        N  0.83591519  0.73593610  0.38070296    -0.04800
N603        N  0.82224612  0.75071007  0.39115204    -0.60900
Mn604      Mn  0.87323454  0.73475174  0.37985225     1.18400
C605        C  0.80100828  0.74279830  0.38658182     0.97400
C606        C  0.87980311  0.73457127  0.30708336     0.98000
N607        N  0.88267443  0.66608778  0.43090163    -0.07100
N608        N  0.88245325  0.66573413  0.45339214    -0.63400
N609        N  0.90924675  0.64630176  0.38347116    -0.05900
N610        N  0.92566419  0.63193361  0.37614233    -0.64100
N611        N  0.91900811  0.66341913  0.39428176    -0.06600
N612        N  0.94130471  0.66132668  0.39457279    -0.63700
N613        N  0.87083962  0.64905783  0.42217227    -0.05500
N614        N  0.86220470  0.63666200  0.43948163    -0.64400
Mn615      Mn  0.90173425  0.69085556  0.41142753     1.10700
C616        C  0.86972394  0.64752308  0.45898831     0.98600
C617        C  0.94573294  0.64176650  0.38336560     0.98700
N618        N  0.85737779  0.66479219  0.33361765    -0.06600
N619        N  0.85766095  0.66354905  0.31116181    -0.62000
N620        N  0.83065137  0.64971271  0.38176321    -0.06000
N621        N  0.81367528  0.63643868  0.38930939    -0.58700
N622        N  0.82167238  0.66726273  0.37064328    -0.07300
N623        N  0.79929106  0.66641005  0.37038751    -0.61600
N624        N  0.86883587  0.64774467  0.34316317    -0.06300
N625        N  0.87740034  0.63445896  0.32649308    -0.58800
Mn626      Mn  0.84059504  0.69223714  0.35151556     1.20200
Mn627      Mn  0.86984729  0.64648156  0.38263533     1.10100
Cl628      Cl  0.87128017  0.69084446  0.38142025    -0.86700
C629        C  0.87007255  0.64475459  0.30657435     0.95600
C630        C  0.79407341  0.64726778  0.38197621     0.95400
N631        N  0.71042278  0.86955945  0.33885412    -0.06900
N632        N  0.71456502  0.86859148  0.31666594    -0.59000
N633        N  0.72654329  0.84589897  0.38831377    -0.06600
N634        N  0.74121269  0.83205319  0.39862113    -0.61100
N635        N  0.71082882  0.83400880  0.37768735    -0.06200
N636        N  0.71431550  0.81186033  0.38061782    -0.59000
N637        N  0.72603270  0.88166847  0.34940429    -0.05800
N638        N  0.74127900  0.88925900  0.33449007    -0.61500
C639        C  0.73360085  0.88123142  0.31409681     0.95300
C640        C  0.73312797  0.81082768  0.39401602     0.95100
N641        N  0.70807482  0.89626293  0.43492885    -0.07100
N642        N  0.71079255  0.89619735  0.45733934    -0.59600
N643        N  0.72424543  0.92104631  0.38626462    -0.05200
N644        N  0.73956724  0.93554271  0.37845149    -0.60800
N645        N  0.70780040  0.93217054  0.39696475    -0.07100
N646        N  0.71157779  0.95447649  0.39674904    -0.59900
N647        N  0.72465941  0.88499705  0.42463746    -0.04800
N648        N  0.73915432  0.87678548  0.43990506    -0.60900
Mn649      Mn  0.72614582  0.88345289  0.38707026     1.18400
C650        C  0.73016006  0.88394058  0.46014266     0.97400
C651        C  0.73128582  0.95635225  0.38471628     0.98000
N652        N  0.65821457  0.83193683  0.37516904    -0.07100
N653        N  0.65694954  0.80944185  0.37513271    -0.63400
N654        N  0.64048946  0.87910739  0.34665665    -0.05900
N655        N  0.62742423  0.88713673  0.32964864    -0.64100
N656        N  0.65790065  0.86774628  0.33768575    -0.06600
N657        N  0.65711455  0.86775038  0.31517853    -0.63700
N658        N  0.64070362  0.84145047  0.38591638    -0.05500
N659        N  0.62709899  0.82482071  0.39369031    -0.64400
Mn660      Mn  0.68433119  0.85062501  0.35721213     1.10700
C661        C  0.63765621  0.80489105  0.38671245     0.98600
C662        C  0.63816559  0.87979043  0.30996027     0.98700
N663        N  0.65534335  0.93037523  0.39698644    -0.06600
N664        N  0.65358376  0.95272573  0.39654634    -0.62000
N665        N  0.63966584  0.88254359  0.42518942    -0.06000
N666        N  0.62761396  0.87289024  0.44213287    -0.58700
N667        N  0.65600205  0.89499151  0.43432012    -0.07300
N668        N  0.65552147  0.89423288  0.45677857    -0.61600
N669        N  0.63861753  0.92040906  0.38576160    -0.06300
N670        N  0.62493656  0.93677278  0.37717622    -0.58800
Mn671      Mn  0.68162790  0.91361270  0.41584775     1.20200
Mn672      Mn  0.63814003  0.88087642  0.38588571     1.10100
Cl673      Cl  0.68221072  0.88216219  0.38641516    -0.86700
C674        C  0.63475179  0.95690720  0.38431293     0.95600
C675        C  0.63793568  0.88054367  0.46181053     0.95400
N676        N  0.03340293  0.88812123  0.33569184    -0.06900
N677        N  0.03150918  0.88328882  0.31368447    -0.59000
N678        N  0.01818576  0.91793119  0.38288182    -0.06600
N679        N  0.00505618  0.93335025  0.39302302    -0.61100
N680        N  0.03454983  0.92789663  0.37122794    -0.06200
N681        N  0.03288766  0.95041020  0.37307095    -0.59000
N682        N  0.01689548  0.87848313  0.34743593    -0.05800
N683        N  0.00324876  0.86697356  0.33370402    -0.61500
C684        C  0.01279159  0.86980964  0.31269886     0.95300
C685        C  0.01438249  0.95358882  0.38673546     0.95100
N686        N  0.03222416  0.87171029  0.43409114    -0.07100
N687        N  0.02858237  0.87478239  0.45624732    -0.59600
N688        N  0.01574614  0.84353004  0.38685740    -0.05200
N689        N  0.00110692  0.82904264  0.37789025    -0.60800
N690        N  0.03125821  0.83250297  0.39881394    -0.07100
N691        N  0.02770889  0.81027075  0.39834007    -0.59900
N692        N  0.01672661  0.88271786  0.42206695    -0.04800
N693        N  0.00227130  0.89355169  0.43569765    -0.60900
Mn694      Mn  0.01608588  0.88073080  0.38476219     1.18400
C695        C  0.00985491  0.88853470  0.45705024     0.97400
C696        C  0.00907998  0.80843177  0.38500786     0.98000
N697        N  0.08724245  0.92538544  0.37015534    -0.07100
N698        N  0.08945316  0.94768254  0.36918090    -0.63400
N699        N  0.10250494  0.87599082  0.34515349    -0.05900
N700        N  0.11621286  0.86720507  0.32894244    -0.64100
N701        N  0.08597911  0.88769991  0.33507371    -0.06600
N702        N  0.08803445  0.88738312  0.31261143    -0.63700
N703        N  0.10392677  0.91573043  0.38196859    -0.05500
N704        N  0.11797569  0.93216951  0.38927637    -0.64400
Mn705      Mn  0.06024374  0.90754626  0.35276860     1.10700
C706        C  0.10853381  0.95217640  0.38100103     0.98600
C707        C  0.10676697  0.87459776  0.30867371     0.98700
N708        N  0.08306799  0.82922729  0.39941517    -0.06600
N709        N  0.08270108  0.80670456  0.39916052    -0.62000
N710        N  0.10267111  0.87688891  0.42432222    -0.06000
N711        N  0.11722904  0.88381102  0.44050397    -0.58700
N712        N  0.08507556  0.86710982  0.43450242    -0.07300
N713        N  0.08718497  0.86687635  0.45692900    -0.61600
N714        N  0.10008083  0.83731591  0.38699444    -0.06300
N715        N  0.11165714  0.81967297  0.37795940    -0.58800
Mn716      Mn  0.05792200  0.85004864  0.41706157     1.20200
Mn717      Mn  0.10396341  0.87640041  0.38465600     1.10100
Cl718      Cl  0.06003267  0.87877704  0.38489473    -0.86700
C719        C  0.10050194  0.80055516  0.38584951     0.95600
C720        C  0.10711398  0.87730377  0.46079788     0.95400
N721        N  0.82642345  0.04483630  0.40163905    -0.06900
N722        N  0.80416550  0.04173580  0.40119912    -0.59000
N723        N  0.87445833  0.03138024  0.42972639    -0.06600
N724        N  0.88176340  0.01757385  0.44616823    -0.61100
N725        N  0.86273030  0.04850491  0.43862527    -0.06200
N726        N  0.86165054  0.04677318  0.46113815    -0.59000
N727        N  0.83737299  0.02735397  0.39252417    -0.05800
N728        N  0.82263984  0.01186214  0.38546120    -0.61500
C729        C  0.80201781  0.02113779  0.39110002     0.95300
C730        C  0.87395995  0.02770045  0.46566340     0.95100
N731        N  0.92329180  0.04242877  0.37835616    -0.07100
N732        N  0.94565342  0.03994789  0.37975013    -0.59600
N733        N  0.87502837  0.02342054  0.35459965    -0.05200
N734        N  0.86567387  0.00751189  0.34165593    -0.60800
N735        N  0.88567537  0.03843767  0.34172955    -0.07100
N736        N  0.88390912  0.03305280  0.31983575    -0.59900
N737        N  0.91280841  0.02747899  0.39147473    -0.04800
N738        N  0.92796760  0.01427129  0.40197797    -0.60900
Mn739      Mn  0.87505895  0.02649089  0.39219801     1.18400
C740        C  0.94845094  0.02252793  0.39477514     0.97400
C741        C  0.87129778  0.01374497  0.31990672     0.74000
N742        N  0.86140093  0.10054406  0.43333644    -0.07100
N743        N  0.86093942  0.10339645  0.45561493    -0.63400
N744        N  0.83552363  0.11322704  0.38392824    -0.05900
N745        N  0.81873531  0.12532511  0.37390915    -0.64100
N746        N  0.82618377  0.09711448  0.39666253    -0.06600
N747        N  0.80384154  0.09780431  0.39582018    -0.63700
N748        N  0.87368206  0.11626539  0.42282487    -0.05500
N749        N  0.88231607  0.13024978  0.43873899    -0.64400
Mn750      Mn  0.84413754  0.07289325  0.41752845     1.10700
C751        C  0.87377995  0.12184357  0.45907099     0.98600
C752        C  0.79894988  0.11522301  0.38166963     0.98700
N753        N  0.88642781  0.09115506  0.33603732    -0.06600
N754        N  0.88636222  0.09095728  0.31348777    -0.62000
N755        N  0.91452785  0.11242675  0.38195562    -0.06000
N756        N  0.93171279  0.12614637  0.38821065    -0.58700
N757        N  0.92337684  0.09423139  0.37180640    -0.07300
N758        N  0.94573557  0.09501454  0.37099444    -0.61600
N759        N  0.87579823  0.10938159  0.34425693    -0.06300
N760        N  0.86818122  0.12196291  0.32671074    -0.58800
Mn761      Mn  0.90473528  0.06657033  0.35674880     1.20200
Mn762      Mn  0.87499932  0.11454614  0.38324090     1.10100
Cl763      Cl  0.87479593  0.07031501  0.38744266    -0.86700
C764        C  0.87498164  0.11012944  0.30748894     0.95600
C765        C  0.95126151  0.11478818  0.38114235     0.95400
N766        N  0.88380279  0.83669775  0.54442249    -0.06900
N767        N  0.88457242  0.81458036  0.53984252    -0.59000
N768        N  0.90495543  0.88812468  0.53032005    -0.06600
N769        N  0.91841336  0.89912142  0.51583215    -0.61100
N770        N  0.91725309  0.87701651  0.54555302    -0.06200
N771        N  0.93921581  0.88034692  0.54198484    -0.59000
N772        N  0.87158940  0.84773199  0.52908386    -0.05800
N773        N  0.86375545  0.83337937  0.51357506    -0.61500
C774        C  0.87163004  0.81271518  0.52080063     0.95300
C775        C  0.93980911  0.89437316  0.52352574     0.95100
N776        N  0.85199905  0.93130947  0.55098024    -0.07100
N777        N  0.85139558  0.95387021  0.54945929    -0.59600
N778        N  0.83010527  0.88110008  0.53351719    -0.05200
N779        N  0.81546226  0.87107286  0.51955703    -0.60800
N780        N  0.81915770  0.89028668  0.55094925    -0.07100
N781        N  0.79703565  0.88677727  0.54938824    -0.59900
N782        N  0.86369673  0.92232456  0.53392647    -0.04800
N783        N  0.87156249  0.93863567  0.52039335    -0.60900
Mn784      Mn  0.86752889  0.88496115  0.53079346     1.18400
C785        C  0.86375097  0.95815309  0.53036985     0.97400
C786        C  0.79488603  0.87449020  0.52994028     0.98000
N787        N  0.91980916  0.87258515  0.59760699    -0.07100
N788        N  0.94216000  0.87322761  0.59781299    -0.63400
N789        N  0.87515021  0.84161265  0.61542464    -0.05900
N790        N  0.86850839  0.82396399  0.62833676    -0.64100
N791        N  0.88625768  0.83365925  0.59736031    -0.06600
N792        N  0.88749191  0.81117942  0.59762413    -0.63700
N793        N  0.91079980  0.88211543  0.61604482    -0.05500
N794        N  0.92791194  0.88938992  0.62940584    -0.64400
Mn795      Mn  0.90186088  0.85479330  0.57126836     1.10700
C796        C  0.94754733  0.88369482  0.61745461     0.98600
C797        C  0.87645275  0.80495662  0.61689388     0.98700
N798        N  0.82103667  0.88912060  0.60271855    -0.06600
N799        N  0.79883910  0.88675691  0.60403558    -0.62000
N800        N  0.86746854  0.91981894  0.61895504    -0.06000
N801        N  0.87715803  0.93697206  0.63058773    -0.58700
N802        N  0.85379347  0.92873033  0.60331754    -0.07300
N803        N  0.85363997  0.95117716  0.60397811    -0.61600
N804        N  0.83180063  0.87789862  0.61910727    -0.06300
N805        N  0.81612152  0.86737151  0.63218350    -0.58800
Mn806      Mn  0.83631441  0.91001319  0.57709817     1.20200
Mn807      Mn  0.87137674  0.88043314  0.61922972     1.10100
Cl808      Cl  0.86937973  0.88257491  0.57496977    -0.86700
C809        C  0.79556389  0.87325078  0.62223389     0.95600
C810        C  0.86810292  0.95651065  0.62086480     0.95400
N811        N  0.12719060  0.09076077  0.48595277    -0.06900
N812        N  0.11856691  0.07684077  0.50148547    -0.59000
N813        N  0.17510592  0.11552751  0.46806116    -0.06600
N814        N  0.19744075  0.11646198  0.47073171    -0.61100
N815        N  0.16455776  0.12744465  0.48403928    -0.06200
N816        N  0.17954501  0.13676128  0.49801620    -0.59000
N817        N  0.13776471  0.07897633  0.46988510    -0.05800
N818        N  0.13664623  0.05679923  0.47412446    -0.61500
C819        C  0.12457445  0.05568198  0.49388598     0.95300
C820        C  0.20002663  0.12976704  0.48945722     0.95100
N821        N  0.16527555  0.12466743  0.39844869    -0.07100
N822        N  0.18212204  0.13287525  0.38522753    -0.59600
N823        N  0.13801653  0.07725686  0.41691478    -0.05200
N824        N  0.13827270  0.05478808  0.41579622    -0.60800
N825        N  0.12680463  0.08649723  0.39959559    -0.07100
N826        N  0.11910780  0.06961609  0.38624435    -0.59900
N827        N  0.17454574  0.11325232  0.41561529    -0.04800
N828        N  0.19691078  0.11334029  0.41456714    -0.60900
Mn829      Mn  0.15643899  0.09602904  0.44252185     1.18400
C830        C  0.20191299  0.12548526  0.39571918     0.97400
C831        C  0.12651293  0.04980018  0.39675069     0.98000
N832        N  0.12708497  0.16601872  0.48375231    -0.07100
N833        N  0.13667359  0.18139220  0.49726202    -0.63400
N834        N  0.07835749  0.13932633  0.46937176    -0.05900
N835        N  0.05619066  0.13935021  0.47338161    -0.64100
N836        N  0.08950751  0.12883151  0.48586907    -0.06600
N837        N  0.07506029  0.12134187  0.50160633    -0.63700
N838        N  0.11543857  0.17628220  0.46746560    -0.05500
N839        N  0.11675846  0.19872963  0.46938929    -0.64400
Mn840      Mn  0.12712848  0.12830232  0.48577678     1.10700
C841        C  0.13030373  0.20175198  0.48781701     0.98600
C842        C  0.05437020  0.12781782  0.49333758     0.98700
N843        N  0.08633197  0.12746229  0.39938420    -0.06600
N844        N  0.06936511  0.12029564  0.38587271    -0.62000
N845        N  0.11351334  0.17478443  0.41542852    -0.06000
N846        N  0.11347914  0.19716315  0.41427151    -0.58700
N847        N  0.12490656  0.16534732  0.39830849    -0.07300
N848        N  0.13303189  0.18210005  0.38493934    -0.61600
N849        N  0.07724700  0.13886793  0.41671922    -0.06300
N850        N  0.05486919  0.13978042  0.41548360    -0.58800
Mn851      Mn  0.12583335  0.12595493  0.39719899     1.20200
Mn852      Mn  0.09601652  0.15728104  0.44217176     1.10100
Cl853      Cl  0.12633116  0.12682910  0.44170176    -0.86700
C854        C  0.04970975  0.12822930  0.39635362     0.95600
C855        C  0.12553420  0.20193884  0.39538451     0.95400
N856        N  0.62764000  0.09690004  0.28023902    -0.06900
N857        N  0.63585469  0.08252648  0.26471942    -0.59000
N858        N  0.57873840  0.12275900  0.29580727    -0.06600
N859        N  0.55690668  0.12210906  0.29025938    -0.61100
N860        N  0.59031732  0.13453327  0.28057628    -0.06200
N861        N  0.57663836  0.14247503  0.26449487    -0.59000
N862        N  0.61611699  0.08569988  0.29592357    -0.05800
N863        N  0.61616673  0.06358606  0.29165446    -0.61500
C864        C  0.62888452  0.06177216  0.27243702     0.95300
C865        C  0.55583098  0.13475903  0.27083874     0.95100
N866        N  0.58570507  0.12953799  0.36659992    -0.07100
N867        N  0.56841890  0.13490236  0.38074685    -0.59600
N868        N  0.61398167  0.08358605  0.34787191    -0.05200
N869        N  0.61367172  0.06117058  0.34810110    -0.60800
N870        N  0.62472631  0.09195065  0.36579652    -0.07100
N871        N  0.63188286  0.07438736  0.37881951    -0.59900
N872        N  0.57714906  0.11944606  0.34837456    -0.04800
N873        N  0.55487278  0.11770418  0.34954169    -0.60900
Mn874      Mn  0.59640648  0.10292239  0.32208420     1.18400
C875        C  0.54918159  0.12728969  0.36961427     0.97400
C876        C  0.62478036  0.05514163  0.36723022     0.98000
N877        N  0.62703013  0.17164650  0.28249139    -0.07100
N878        N  0.61672771  0.18617868  0.26862155    -0.63400
N879        N  0.67529157  0.14579446  0.29875490    -0.05900
N880        N  0.69766327  0.14370968  0.29623291    -0.64100
N881        N  0.66460502  0.13467400  0.28248906    -0.06600
N882        N  0.67931612  0.12467853  0.26854676    -0.63700
N883        N  0.63718196  0.18259773  0.29918260    -0.05500
N884        N  0.63407068  0.20491500  0.29714559    -0.64400
Mn885      Mn  0.62752896  0.13445812  0.28067290     1.10700
C886        C  0.62091053  0.20682517  0.27820266     0.98600
C887        C  0.69984339  0.13018575  0.27747706     0.98700
N888        N  0.66458962  0.13300188  0.36756151    -0.06600
N889        N  0.68147449  0.12396063  0.38017264    -0.62000
N890        N  0.63680020  0.18104665  0.35177584    -0.06000
N891        N  0.63599025  0.20343411  0.35352077    -0.58700
N892        N  0.62500692  0.17090396  0.36820360    -0.07300
N893        N  0.61559463  0.18710324  0.38153408    -0.61600
N894        N  0.67385140  0.14561560  0.35124800    -0.06300
N895        N  0.69619626  0.14575819  0.35236294    -0.58800
Mn896      Mn  0.62507464  0.13133424  0.36885750     1.20200
Mn897      Mn  0.65600905  0.16405513  0.32535779     1.10100
Cl898      Cl  0.62626515  0.13318542  0.32451015    -0.86700
C899        C  0.70111609  0.13234547  0.37026628     0.95600
C900        C  0.62282521  0.20733900  0.37192738     0.95400
N901        N  0.12362439  0.85854690  0.09530407    -0.06900
N902        N  0.13191176  0.87256023  0.07914399    -0.59000
N903        N  0.07557168  0.83934213  0.12071280    -0.06600
N904        N  0.05313947  0.84017090  0.12041111    -0.61100
N905        N  0.08423719  0.85620011  0.13290435    -0.06200
N906        N  0.06696298  0.86886385  0.14124412    -0.59000
N907        N  0.11296261  0.84152806  0.08512572    -0.05800
N908        N  0.11369274  0.84339703  0.06275194    -0.61500
C909        C  0.12539449  0.86264630  0.05881396     0.95300
C910        C  0.04751005  0.85851173  0.13317763     0.95100
N911        N  0.08879116  0.77010388  0.12969471    -0.07100
N912        N  0.07469854  0.75426002  0.13729628    -0.59600
N913        N  0.11515300  0.78901953  0.08283471    -0.05200
N914        N  0.11669436  0.78666352  0.06040734    -0.60800
N915        N  0.12663439  0.77273842  0.09331163    -0.07100
N916        N  0.13633057  0.75890005  0.07822953    -0.59900
N917        N  0.07742168  0.78646027  0.11918349    -0.04800
N918        N  0.05534148  0.78214960  0.11924490    -0.60900
Mn919      Mn  0.09507613  0.81420683  0.10182780     1.18400
C920        C  0.05389973  0.76204472  0.13063234     0.97400
C921        C  0.13002813  0.76788715  0.05771974     0.98000
N922        N  0.12390097  0.85574536  0.17416941    -0.07100
N923        N  0.11575480  0.86862736  0.19139855    -0.63400
N924        N  0.17233743  0.84032616  0.14728463    -0.05900
N925        N  0.19462527  0.84186254  0.14813006    -0.64100
N926        N  0.16300113  0.85794304  0.13660682    -0.06600
N927        N  0.17973250  0.87203038  0.12993810    -0.63700
N928        N  0.13530116  0.83827558  0.18296069    -0.05500
N929        N  0.13521614  0.83878750  0.20546091    -0.64400
Mn930      Mn  0.12359932  0.85886942  0.13476595     1.10700
C931        C  0.12305284  0.85758026  0.21094389     0.98600
C932        C  0.19952343  0.86151208  0.13736496     0.98700
N933        N  0.16345615  0.77223982  0.13132006    -0.06600
N934        N  0.17862865  0.75967630  0.12007308    -0.62000
N935        N  0.13489367  0.78595774  0.17989852    -0.06000
N936        N  0.13038565  0.78370324  0.20191734    -0.58700
N937        N  0.12484678  0.76985560  0.16802907    -0.07300
N938        N  0.11332668  0.75608391  0.18175621    -0.61600
N939        N  0.17370079  0.78815852  0.14327881    -0.06300
N940        N  0.19606643  0.78689972  0.14039408    -0.58800
Mn941      Mn  0.12609963  0.77038187  0.13064420     1.20200
Mn942      Mn  0.15425891  0.81306492  0.16358081     1.10100
Cl943      Cl  0.12471591  0.81459292  0.13269952    -0.86700
C944        C  0.19893751  0.76923077  0.12560320     0.95600
C945        C  0.11669735  0.76516538  0.20285387     0.95400
N946        N  0.08032727  0.62394763  0.36554767    -0.06900
N947        N  0.06301267  0.63169757  0.37850028    -0.59000
N948        N  0.10897585  0.57681943  0.34921251    -0.06600
N949        N  0.10886802  0.55439271  0.35094117    -0.61100
N950        N  0.12000343  0.58655073  0.36632422    -0.06200
N951        N  0.12799157  0.56999865  0.38010694    -0.59000
N952        N  0.07170177  0.61218927  0.34836715    -0.05800
N953        N  0.04929521  0.61159328  0.34920923    -0.61500
C954        C  0.04361866  0.62370744  0.36793377     0.95300
C955        C  0.12063337  0.55004094  0.37008402     0.95100
N956        N  0.12212623  0.58787887  0.28019941    -0.07100
N957        N  0.13170549  0.57328302  0.26564537    -0.59600
N958        N  0.07303356  0.61350005  0.29605156    -0.05200
N959        N  0.05077124  0.61545632  0.29328802    -0.60800
N960        N  0.08398455  0.62485095  0.28006842    -0.07100
N961        N  0.06945250  0.63487860  0.26602183    -0.59900
N962        N  0.11130265  0.57676836  0.29645341    -0.04800
N963        N  0.11327873  0.55446434  0.29343128    -0.60900
Mn964      Mn  0.09114144  0.59463120  0.32250792     1.18400
C965        C  0.12600401  0.55240394  0.27415624     0.97400
C966        C  0.04878549  0.62909944  0.27462942     0.98000
N967        N  0.15931658  0.62871370  0.36660719    -0.07100
N968        N  0.17662623  0.62133114  0.37978753    -0.63400
N969        N  0.13009088  0.67564129  0.34882689    -0.05900
N970        N  0.12929239  0.69810990  0.35017770    -0.64100
N971        N  0.11901963  0.66585035  0.36595837    -0.06600
N972        N  0.11020998  0.68232673  0.37937452    -0.63700
N973        N  0.16801810  0.64060144  0.34948410    -0.05500
N974        N  0.19034799  0.64162878  0.35051764    -0.64400
Mn975      Mn  0.11971786  0.62621920  0.36788425     1.10700
C976        C  0.19604750  0.62965314  0.36926085     0.98600
C977        C  0.11688423  0.70244464  0.36910038     0.98700
N978        N  0.12013341  0.66302626  0.27957381    -0.06600
N979        N  0.11170234  0.67715837  0.26401942    -0.62000
N980        N  0.16844404  0.63799525  0.29719467    -0.06000
N981        N  0.19078360  0.63555140  0.29542911    -0.58700
N982        N  0.15811419  0.62640266  0.28103336    -0.07300
N983        N  0.17313730  0.61587888  0.26777826    -0.61600
N984        N  0.13024553  0.67457380  0.29589144    -0.06300
N985        N  0.12899351  0.69676918  0.29189239    -0.58800
Mn986      Mn  0.12109533  0.62552143  0.27939563     1.20200
Mn987      Mn  0.14927421  0.65744174  0.32287180     1.10100
Cl988      Cl  0.12033992  0.62592926  0.32366270    -0.86700
C989        C  0.11739047  0.69818145  0.27197357     0.95600
C990        C  0.19346173  0.62144390  0.27719125     0.95400
N991        N  0.76850497  0.12607428  0.09759787    -0.06900
N992        N  0.75271270  0.13418320  0.08359346    -0.59000
N993        N  0.78617104  0.07827874  0.12366098    -0.06600
N994        N  0.78332563  0.05593017  0.12543486    -0.61100
N995        N  0.77057606  0.08936513  0.13558512    -0.06200
N996        N  0.75671309  0.07477567  0.14573354    -0.59000
N997        N  0.78449107  0.11526883  0.08598418    -0.05800
N998        N  0.77993219  0.11569309  0.06384784    -0.61500
C999        C  0.76007601  0.12759308  0.06249973     0.95300
C1000       C  0.76491481  0.05391593  0.13932425     0.95100
N1001       N  0.85518540  0.08745574  0.13243793    -0.07100
N1002       N  0.86792757  0.07066076  0.14149311    -0.59600
N1003       N  0.83736180  0.11486731  0.08458602    -0.05200
N1004       N  0.83818918  0.11499835  0.06211354    -0.60800
N1005       N  0.85476168  0.12588143  0.09361158    -0.07100
N1006       N  0.86788142  0.13377937  0.07653717    -0.59900
N1007       N  0.83825653  0.07814095  0.12094929    -0.04800
N1008       N  0.83905286  0.05566727  0.12169016    -0.60900
Mn1009     Mn  0.81171257  0.09653125  0.10349849     1.18400
C1010       C  0.85745650  0.05087917  0.13446102     0.97400
C1011       C  0.85714041  0.12671391  0.05683701     0.98000
N1012       N  0.77125436  0.12814337  0.17262127    -0.07100
N1013       N  0.75711951  0.11987650  0.18823493    -0.63400
N1014       N  0.78679403  0.17584280  0.14392711    -0.05900
N1015       N  0.78477546  0.19795381  0.13937367    -0.64100
N1016       N  0.77046010  0.16428630  0.13388520    -0.06600
N1017       N  0.75703210  0.17819817  0.12222822    -0.63700
N1018       N  0.78763570  0.13964230  0.18255433    -0.05500
N1019       N  0.78525543  0.13937347  0.20498369    -0.64400
Mn1020     Mn  0.76931463  0.12693092  0.13512663     1.10700
C1021       C  0.76617553  0.12708371  0.20838397     0.98600
C1022       C  0.76624444  0.19912474  0.12553917     0.98700
N1023       N  0.85640412  0.16626538  0.13411628    -0.06600
N1024       N  0.87059624  0.18260736  0.12684043    -0.62000
N1025       N  0.83958515  0.13982605  0.18202835    -0.06000
N1026       N  0.84099783  0.13982660  0.20447367    -0.58700
N1027       N  0.85634481  0.12792511  0.17254320    -0.07300
N1028       N  0.86969115  0.11955465  0.18922417    -0.61600
N1029       N  0.83947324  0.17609402  0.14547561    -0.06300
N1030       N  0.84168827  0.19845329  0.14647434    -0.58800
Mn1031     Mn  0.85733566  0.12678546  0.13306785     1.20200
Mn1032     Mn  0.81332670  0.15810036  0.16359489     1.10100
Cl1033     Cl  0.81314871  0.12710153  0.13378130    -0.86700
C1034       C  0.86098743  0.20264618  0.13484956     0.95600
C1035       C  0.85970615  0.12728156  0.20921254     0.95400
N1036       N  0.85348055  0.59213072  0.63391124    -0.06900
N1037       N  0.86677108  0.57512561  0.64183928    -0.59000
N1038       N  0.83767529  0.61821339  0.58518096    -0.06600
N1039       N  0.83841090  0.61849910  0.56266158    -0.61100
N1040       N  0.85454942  0.62997990  0.59423950    -0.06200
N1041       N  0.86716858  0.63877213  0.57722681    -0.59000
N1042       N  0.83586526  0.58304282  0.62337759    -0.05800
N1043       N  0.83667399  0.56057935  0.62383298    -0.61500
C1044       C  0.85586876  0.55535619  0.63529846     0.95300
C1045       C  0.85670262  0.63125062  0.55756099     0.95100
N1046       N  0.77005292  0.63404894  0.59453999    -0.07100
N1047       N  0.75589395  0.64238883  0.57901899    -0.59600
N1048       N  0.78318461  0.58602414  0.62380547    -0.05200
N1049       N  0.77921716  0.56397065  0.62641729    -0.60800
N1050       N  0.76695357  0.59833799  0.63350232    -0.07100
N1051       N  0.75149347  0.58484744  0.64297739    -0.59900
N1052       N  0.78575935  0.62122840  0.58469316    -0.04800
N1053       N  0.78278219  0.62053152  0.56233354    -0.60900
Mn1054     Mn  0.81071353  0.60186548  0.60422393     1.18400
C1055       C  0.76430834  0.63405722  0.55897489     0.97400
C1056       C  0.75957349  0.56340315  0.63869023     0.98000
N1057       N  0.85617903  0.67088442  0.63384496    -0.07100
N1058       N  0.87048408  0.68685601  0.62585276    -0.63400
N1059       N  0.83690787  0.64514898  0.68209455    -0.05900
N1060       N  0.83777986  0.64482434  0.70460158    -0.64100
N1061       N  0.85381497  0.63321500  0.67285232    -0.06600
N1062       N  0.86665568  0.62445204  0.68963150    -0.63700
N1063       N  0.83937726  0.68118196  0.64497279    -0.05500
N1064       N  0.84164896  0.70350536  0.64481555    -0.64400
Mn1065     Mn  0.85616467  0.63153013  0.63364931     1.10700
C1066       C  0.86095454  0.70725696  0.63299478     0.98600
C1067       C  0.85627078  0.63196103  0.70940250     0.98700
N1068       N  0.76759919  0.63719725  0.66935942    -0.06600
N1069       N  0.75275939  0.62786341  0.68360207    -0.62000
N1070       N  0.78742197  0.68372143  0.64247834    -0.06000
N1071       N  0.78568469  0.70617667  0.64079425    -0.58700
N1072       N  0.77122298  0.67361627  0.63077491    -0.07300
N1073       N  0.75799462  0.68912076  0.62081189    -0.61600
N1074       N  0.78392758  0.64737225  0.68077057    -0.06300
N1075       N  0.78047005  0.64538125  0.70306179    -0.58800
Mn1076     Mn  0.76805199  0.63599864  0.63193823     1.20200
Mn1077     Mn  0.81195197  0.66451399  0.66290199     1.10100
Cl1078     Cl  0.81191684  0.63347589  0.63320916    -0.86700
C1079       C  0.76098921  0.63311988  0.70462751     0.95600
C1080       C  0.76748974  0.70936395  0.62695223     0.95400
N1081       N  0.12443440  0.08559598  0.78366291    -0.06900
N1082       N  0.13468701  0.07041008  0.77038626    -0.59000
N1083       N  0.07510346  0.11221975  0.79748127    -0.06600
N1084       N  0.05287875  0.11284523  0.79363696    -0.61100
N1085       N  0.08627227  0.12226054  0.78078647    -0.06200
N1086       N  0.07198107  0.13021967  0.76522963    -0.59000
N1087       N  0.11319185  0.07536315  0.80022532    -0.05800
N1088       N  0.11547544  0.05289830  0.79859981    -0.61500
C1089       C  0.12925031  0.05007114  0.78007340     0.95300
C1090       C  0.05122484  0.12464274  0.77373112     0.95100
N1091       N  0.08456911  0.12776233  0.86647088    -0.07100
N1092       N  0.06760571  0.13807071  0.87813129    -0.59600
N1093       N  0.11113756  0.07902890  0.85247879    -0.05200
N1094       N  0.11098596  0.05676840  0.85422161    -0.60800
N1095       N  0.12317699  0.08864599  0.86885841    -0.07100
N1096       N  0.13183748  0.07195644  0.88217970    -0.59900
N1097       N  0.07539763  0.11535438  0.85002607    -0.04800
N1098       N  0.05306902  0.11668982  0.85013099    -0.60900
Mn1099     Mn  0.09347712  0.09532841  0.82522767     1.18400
C1100       C  0.04794525  0.13080683  0.86749516     0.97400
C1101       C  0.12388079  0.05201468  0.87245945     0.98000
N1102       N  0.12220865  0.15985376  0.77906366    -0.07100
N1103       N  0.11191321  0.17310612  0.76393223    -0.63400
N1104       N  0.17132887  0.13628505  0.79598470    -0.05900
N1105       N  0.19350235  0.13620148  0.79211217    -0.64100
N1106       N  0.16071307  0.12390099  0.78066516    -0.06600
N1107       N  0.17548117  0.11511719  0.76589872    -0.63700
N1108       N  0.13262220  0.17219143  0.79460051    -0.05500
N1109       N  0.12966986  0.19418347  0.79045251    -0.64400
Mn1110     Mn  0.12349101  0.12277094  0.78024902     1.10700
C1111       C  0.11648116  0.19450682  0.77142844     0.98600
C1112       C  0.19594643  0.12290119  0.77334952     0.98700
N1113       N  0.16370185  0.12936927  0.86631555    -0.06600
N1114       N  0.18094244  0.12305233  0.88007403    -0.62000
N1115       N  0.13558471  0.17606524  0.84724447    -0.06000
N1116       N  0.13668670  0.19851047  0.84831229    -0.58700
N1117       N  0.12526690  0.16736191  0.86535018    -0.07300
N1118       N  0.11907865  0.18451869  0.87925069    -0.61600
N1119       N  0.17240781  0.13990544  0.84829731    -0.06300
N1120       N  0.19476931  0.14087792  0.84924460    -0.58800
Mn1121     Mn  0.12417641  0.12819667  0.86855266     1.20200
Mn1122     Mn  0.15305931  0.15630683  0.82151038     1.10100
Cl1123     Cl  0.12360311  0.12563688  0.82415587    -0.86700
C1124       C  0.20039085  0.13047161  0.86897640     0.95600
C1125       C  0.12635007  0.20395901  0.86817057     0.95400
N1126       N  0.62630855  0.35901605  0.09440758    -0.06900
N1127       N  0.63375884  0.37251901  0.07737799    -0.59000
N1128       N  0.57883890  0.34168252  0.12151820    -0.06600
N1129       N  0.55640222  0.34274592  0.12138619    -0.61100
N1130       N  0.58789841  0.35872787  0.13315498    -0.06200
N1131       N  0.57088786  0.37179400  0.14142438    -0.59000
N1132       N  0.61547042  0.34154165  0.08527590    -0.05800
N1133       N  0.61524097  0.34267404  0.06282771    -0.61500
C1134       C  0.62660477  0.36186774  0.05760778     0.95300
C1135       C  0.55127909  0.36140946  0.13378211     0.95100
N1136       N  0.59064831  0.27333699  0.13492676    -0.07100
N1137       N  0.57609899  0.25860942  0.14385582    -0.59600
N1138       N  0.61698297  0.28866382  0.08603759    -0.05200
N1139       N  0.61817376  0.28499121  0.06373755    -0.60800
N1140       N  0.62776340  0.27243758  0.09735857    -0.07100
N1141       N  0.63657208  0.25727486  0.08295714    -0.59900
N1142       N  0.57966613  0.28915036  0.12325769    -0.04800
N1143       N  0.55745624  0.28561434  0.12399951    -0.60900
Mn1144     Mn  0.59768742  0.31536156  0.10387575     1.18400
C1145       C  0.55536752  0.26655973  0.13697041     0.97400
C1146       C  0.63076934  0.26554744  0.06198540     0.98000
N1147       N  0.62878906  0.35965292  0.17377362    -0.07100
N1148       N  0.62091165  0.37319525  0.19064536    -0.63400
N1149       N  0.67664888  0.34241705  0.14587252    -0.05900
N1150       N  0.69902022  0.34385253  0.14569645    -0.64100
N1151       N  0.66689867  0.35940319  0.13451783    -0.06600
N1152       N  0.68335334  0.37283497  0.12608907    -0.63700
N1153       N  0.64075198  0.34285708  0.18311301    -0.05500
N1154       N  0.64127084  0.34449187  0.20560024    -0.64400
Mn1155     Mn  0.62739729  0.36087813  0.13400435     1.10700
C1156       C  0.62898918  0.36337441  0.21058200     0.98600
C1157       C  0.70335938  0.36271224  0.13337529     0.98700
N1158       N  0.66529866  0.27342533  0.13454503    -0.06600
N1159       N  0.67936055  0.25931332  0.12383498    -0.62000
N1160       N  0.64003611  0.29077689  0.18300012    -0.06000
N1161       N  0.63817643  0.28919224  0.20543226    -0.58700
N1162       N  0.62852417  0.27453301  0.17276432    -0.07300
N1163       N  0.61856150  0.26134956  0.18820772    -0.61600
N1164       N  0.67675801  0.28952923  0.14507410    -0.06300
N1165       N  0.69896921  0.28657621  0.14191611    -0.58800
Mn1166     Mn  0.62804182  0.27255043  0.13507667     1.20200
Mn1167     Mn  0.65880602  0.31641195  0.16436762     1.10100
Cl1168     Cl  0.62796260  0.31653818  0.13432894    -0.86700
C1169       C  0.70036296  0.26770752  0.12845659     0.95600
C1170       C  0.62479775  0.27079116  0.20853365     0.95400
N1171       N  0.08601342  0.27155174  0.62890165    -0.06900
N1172       N  0.07181449  0.25741442  0.63928777    -0.59000
N1173       N  0.11064065  0.29042505  0.58050839    -0.06600
N1174       N  0.11185188  0.28884687  0.55794648    -0.61100
N1175       N  0.12230488  0.27382101  0.59022525    -0.06200
N1176       N  0.13181541  0.26054329  0.57455825    -0.59000
N1177       N  0.07466109  0.28856912  0.61940964    -0.05800
N1178       N  0.05251882  0.28643561  0.62302698    -0.61500
C1179       C  0.05099383  0.26709632  0.63572523     0.95300
C1180       C  0.12514628  0.27012154  0.55448680     0.95100
N1181       N  0.12298618  0.35833044  0.59371747    -0.07100
N1182       N  0.13350336  0.37035366  0.57728048    -0.59600
N1183       N  0.07480384  0.34131080  0.62089620    -0.05200
N1184       N  0.05244272  0.34287271  0.62166163    -0.60800
N1185       N  0.08466565  0.35759610  0.63293879    -0.07100
N1186       N  0.06834451  0.37060056  0.64257071    -0.59900
N1187       N  0.11050499  0.34238458  0.58389048    -0.04800
N1188       N  0.11207607  0.34304916  0.56150473    -0.60900
Mn1189     Mn  0.09227195  0.31580785  0.60098956     1.18400
C1190       C  0.12630324  0.36034967  0.55725266     0.97400
C1191       C  0.04832928  0.36098919  0.63513005     0.98000
N1192       N  0.16095534  0.27193861  0.62616932    -0.07100
N1193       N  0.17588896  0.26012846  0.61374456    -0.63400
N1194       N  0.13529170  0.28401697  0.67655574    -0.05900
N1195       N  0.13485733  0.27908487  0.69855831    -0.64100
N1196       N  0.12472746  0.26827703  0.66466765    -0.06600
N1197       N  0.11674861  0.25217160  0.67836947    -0.63700
N1198       N  0.17147702  0.28752497  0.63833252    -0.05500
N1199       N  0.19358328  0.28698788  0.63431581    -0.64400
Mn1200     Mn  0.12350456  0.27039777  0.62739175     1.10700
C1201       C  0.19621954  0.27000545  0.61881938     0.98600
C1202       C  0.12332498  0.25919806  0.69947748     0.98700
N1203       N  0.12516110  0.35503189  0.67226289    -0.06600
N1204       N  0.11803572  0.36824648  0.68959925    -0.62000
N1205       N  0.17208194  0.33863936  0.64437291    -0.06000
N1206       N  0.19440981  0.33915721  0.64502291    -0.58700
N1207       N  0.16337851  0.35668646  0.63396008    -0.07300
N1208       N  0.18063431  0.37019610  0.62732702    -0.61600
N1209       N  0.13574310  0.33691626  0.68075061    -0.06300
N1210       N  0.13612659  0.33737040  0.70325370    -0.58800
Mn1211     Mn  0.12402650  0.35868606  0.63314158     1.20200
Mn1212     Mn  0.15360463  0.31171531  0.66029910     1.10100
Cl1213     Cl  0.12327612  0.31438423  0.63054449    -0.86700
C1214       C  0.12505792  0.35681468  0.70896120     0.95600
C1215       C  0.19999203  0.35863675  0.63442776     0.95400
N1216       N  0.12705365  0.39387762  0.09314756    -0.06900
N1217       N  0.12080285  0.37950367  0.07642917    -0.59000
N1218       N  0.17381964  0.41419608  0.11906437    -0.06600
N1219       N  0.19627287  0.41481163  0.11915659    -0.61100
N1220       N  0.16600137  0.39655584  0.13080523    -0.06200
N1221       N  0.18379311  0.38476205  0.13910218    -0.59000
N1222       N  0.13633332  0.41208157  0.08361465    -0.05800
N1223       N  0.13666997  0.41063916  0.06116049    -0.61500
C1224       C  0.12703861  0.39041687  0.05642600     0.95300
C1225       C  0.20270394  0.39650568  0.13161628     0.95100
N1226       N  0.15775206  0.48141910  0.13245714    -0.07100
N1227       N  0.17141786  0.49707364  0.14093055    -0.59600
N1228       N  0.13072849  0.46477434  0.08499183    -0.05200
N1229       N  0.12844093  0.46899108  0.06284835    -0.60800
N1230       N  0.11903684  0.47976685  0.09714105    -0.07100
N1231       N  0.10856597  0.49449832  0.08355166    -0.59900
N1232       N  0.16944190  0.46635859  0.12045328    -0.04800
N1233       N  0.19137514  0.47129534  0.12041516    -0.60900
Mn1234     Mn  0.15270882  0.43930959  0.10176385     1.18400
C1235       C  0.19231534  0.49019246  0.13365040     0.97400
C1236       C  0.11426850  0.48745280  0.06215317     0.98000
N1237       N  0.12682341  0.39272636  0.17264618    -0.07100
N1238       N  0.13563012  0.37929025  0.18910595    -0.63400
N1239       N  0.07765711  0.40795001  0.14702882    -0.05900
N1240       N  0.05532134  0.40658526  0.14619182    -0.64100
N1241       N  0.08765237  0.39200112  0.13437401    -0.06600
N1242       N  0.07143363  0.37941296  0.12441145    -0.63700
N1243       N  0.11469813  0.40904172  0.18262943    -0.05500
N1244       N  0.11470321  0.40719159  0.20505506    -0.64400
Mn1245     Mn  0.12700144  0.39198416  0.13277881     1.10700
C1246       C  0.12769972  0.38876344  0.20930578     0.98600
C1247       C  0.05126879  0.38888794  0.13219350     0.98700
N1248       N  0.08359001  0.47712781  0.13704336    -0.06600
N1249       N  0.06765684  0.49157182  0.12999052    -0.62000
N1250       N  0.11337229  0.46147245  0.18353864    -0.06000
N1251       N  0.11664779  0.46388888  0.20579583    -0.58700
N1252       N  0.12289883  0.47831382  0.17212632    -0.07300
N1253       N  0.13299181  0.49259963  0.18633034    -0.61600
N1254       N  0.07435769  0.46021922  0.14855088    -0.06300
N1255       N  0.05199877  0.46263568  0.14977034    -0.58800
Mn1256     Mn  0.12072336  0.47989608  0.13465054     1.20200
Mn1257     Mn  0.09490304  0.43455116  0.16560509     1.10100
Cl1258     Cl  0.12384915  0.43599346  0.13362920    -0.86700
C1259       C  0.04810565  0.48215475  0.13803821     0.95600
C1260       C  0.12922747  0.48320956  0.20726447     0.95400
N1261       N  0.41195884  0.37550312  0.23940850    -0.06900
N1262       N  0.42599307  0.36525586  0.25392355    -0.59000
N1263       N  0.38807066  0.42530345  0.22361100    -0.06600
N1264       N  0.38820032  0.44747746  0.22791940    -0.61100
N1265       N  0.37640350  0.41435681  0.23937628    -0.06200
N1266       N  0.36821884  0.42873114  0.25477764    -0.59000
N1267       N  0.42357353  0.38626047  0.22343652    -0.05800
N1268       N  0.44569349  0.38349477  0.22650688    -0.61500
C1269       C  0.44701078  0.37008287  0.24535612     0.95300
C1270       C  0.37571443  0.44931429  0.24739020     0.95100
N1271       N  0.37851608  0.41783249  0.15356252    -0.07100
N1272       N  0.36983523  0.43519560  0.14126952    -0.59600
N1273       N  0.42527784  0.38833628  0.17092719    -0.05200
N1274       N  0.44767387  0.38739557  0.17038773    -0.60800
N1275       N  0.41612998  0.37760602  0.15334705    -0.07100
N1276       N  0.43315218  0.36906795  0.14033649    -0.59900
N1277       N  0.39000875  0.42643217  0.17091239    -0.04800
N1278       N  0.38955242  0.44891115  0.17080932    -0.60900
Mn1279     Mn  0.40690531  0.40677975  0.19713052     1.18400
C1280       C  0.37699741  0.45463068  0.15242832     0.97400
C1281       C  0.45291198  0.37540826  0.15145678     0.98000
N1282       N  0.33734967  0.37971340  0.23817309    -0.07100
N1283       N  0.32315924  0.39024386  0.25236826    -0.63400
N1284       N  0.36111475  0.32988234  0.22217654    -0.05900
N1285       N  0.36152498  0.30748098  0.22499757    -0.64100
N1286       N  0.37249782  0.34009849  0.23853234    -0.06600
N1287       N  0.38100687  0.32489637  0.25295745    -0.63700
N1288       N  0.32602772  0.36950622  0.22176531    -0.05500
N1289       N  0.30384386  0.37274858  0.22440106    -0.64400
Mn1290     Mn  0.37457408  0.37732126  0.23962216     1.10700
C1291       C  0.30229148  0.38600891  0.24339981     0.98600
C1292       C  0.37395376  0.30463965  0.24426330     0.98700
N1293       N  0.37352932  0.33910083  0.15246092    -0.06600
N1294       N  0.38059853  0.32211374  0.13872717    -0.62000
N1295       N  0.32700378  0.36847374  0.16924880    -0.06000
N1296       N  0.30470135  0.36920108  0.16763311    -0.58700
N1297       N  0.33703140  0.37928765  0.15212809    -0.07300
N1298       N  0.32079115  0.38773724  0.13830279    -0.61600
N1299       N  0.36146676  0.33015997  0.16937987    -0.06300
N1300       N  0.36010228  0.30779213  0.16762935    -0.58800
Mn1301     Mn  0.37644307  0.37845493  0.15106889     1.20200
Mn1302     Mn  0.34373870  0.34932103  0.19561484     1.10100
Cl1303     Cl  0.37552670  0.37785099  0.19538549    -0.86700
C1304       C  0.37197492  0.30255759  0.14859509     0.95600
C1305       C  0.30060253  0.38114551  0.14846488     0.95400
N1306       N  0.65982476  0.62854076  0.40006158    -0.06900
N1307       N  0.67649114  0.63733341  0.38699781    -0.59000
N1308       N  0.63221846  0.58069428  0.41580306    -0.06600
N1309       N  0.63047929  0.55836949  0.41446093    -0.61100
N1310       N  0.62018420  0.59120919  0.39978481    -0.06200
N1311       N  0.60981145  0.57534518  0.38699612    -0.59000
N1312       N  0.66936511  0.61592047  0.41623214    -0.05800
N1313       N  0.69168841  0.61575234  0.41464411    -0.61500
C1314       C  0.69641560  0.62898263  0.39649415     0.95300
C1315       C  0.61666761  0.55491911  0.39660809     0.95100
N1316       N  0.62319738  0.58817540  0.48523485    -0.07100
N1317       N  0.61483026  0.57311948  0.49981344    -0.59600
N1318       N  0.67154223  0.61345815  0.46885090    -0.05200
N1319       N  0.69390441  0.61359056  0.47175218    -0.60800
N1320       N  0.66116222  0.62406459  0.48580247    -0.07100
N1321       N  0.67613078  0.63189793  0.50061575    -0.59900
N1322       N  0.63362134  0.57769109  0.46821463    -0.04800
N1323       N  0.63269567  0.55526325  0.47073934    -0.60900
Mn1324     Mn  0.65186969  0.59679851  0.44208631     1.18400
C1325       C  0.62085814  0.55270249  0.49046963     0.97400
C1326       C  0.69643125  0.62524967  0.49159735     0.98000
N1327       N  0.58095968  0.63272567  0.40337864    -0.07100
N1328       N  0.56355977  0.62578572  0.39033602    -0.63400
N1329       N  0.60993915  0.67871538  0.42143542    -0.05900
N1330       N  0.61030561  0.70118526  0.42127971    -0.64100
N1331       N  0.62028509  0.67002443  0.40326771    -0.06600
N1332       N  0.62798927  0.68731192  0.39028524    -0.63700
N1333       N  0.57250330  0.64331453  0.42154270    -0.05500
N1334       N  0.55004428  0.64385300  0.42127229    -0.64400
Mn1335     Mn  0.62029766  0.63068735  0.39981153     1.10700
C1336       C  0.54423555  0.63294981  0.40187707     0.98600
C1337       C  0.62154107  0.70680897  0.40199441     0.98700
N1338       N  0.62550975  0.66281893  0.48889880    -0.06600
N1339       N  0.63706871  0.67612419  0.50292634    -0.62000
N1340       N  0.57533293  0.63953485  0.47436348    -0.06000
N1341       N  0.55328579  0.63927663  0.47912445    -0.58700
N1342       N  0.58673180  0.62711800  0.48926458    -0.07300
N1343       N  0.57267972  0.61813967  0.50454597    -0.61600
N1344       N  0.61426755  0.67518899  0.47385061    -0.06300
N1345       N  0.61794418  0.69717254  0.47725766    -0.58800
Mn1346     Mn  0.62405019  0.62549142  0.48800487     1.20200
Mn1347     Mn  0.59277648  0.65938319  0.44782290     1.10100
Cl1348     Cl  0.62216080  0.62807470  0.44397176    -0.86700
C1349       C  0.63238537  0.69757698  0.49536668     0.95600
C1350       C  0.55178667  0.62586261  0.49798992     0.95400
N1351       N  0.52040662  0.34286821  0.38724355    -0.06900
N1352       N  0.50569539  0.32754834  0.37979791    -0.59000
N1353       N  0.53501081  0.37252464  0.43422203    -0.06600
N1354       N  0.53049127  0.37501843  0.45633834    -0.61100
N1355       N  0.51918299  0.38258693  0.42182725    -0.06200
N1356       N  0.50372828  0.39236051  0.43513359    -0.59000
N1357       N  0.53632204  0.33294815  0.39961780    -0.05800
N1358       N  0.53299435  0.31069339  0.40095950    -0.61500
C1359       C  0.51393549  0.30761260  0.38847175     0.95300
C1360       C  0.51095618  0.38766177  0.45669814     0.95100
N1361       N  0.60582842  0.38117946  0.42468206    -0.07100
N1362       N  0.62054518  0.38700345  0.44119212    -0.59600
N1363       N  0.58840225  0.33324488  0.39977619    -0.05200
N1364       N  0.58847201  0.31077083  0.39936243    -0.60800
N1365       N  0.60532528  0.34182816  0.38751240    -0.07100
N1366       N  0.61738165  0.32445162  0.37849035    -0.59900
N1367       N  0.58794895  0.37150833  0.43436216    -0.04800
N1368       N  0.58983006  0.37069988  0.45667534    -0.60900
Mn1369     Mn  0.56211236  0.35257056  0.41725255     1.18400
C1370       C  0.61003709  0.38022561  0.46120648     0.97400
C1371       C  0.60643393  0.30510174  0.38619385     0.98000
N1372       N  0.51937606  0.41737801  0.38213178    -0.07100
N1373       N  0.50471469  0.43189914  0.39141101    -0.63400
N1374       N  0.53739420  0.38876055  0.33563418    -0.05900
N1375       N  0.53482196  0.38593676  0.31338155    -0.64100
N1376       N  0.52132380  0.37800422  0.34703055    -0.06600
N1377       N  0.50735021  0.36768024  0.33273918    -0.63700
N1378       N  0.53526643  0.42836740  0.37074561    -0.05500
N1379       N  0.53172306  0.45072832  0.37192585    -0.64400
Mn1380     Mn  0.51934570  0.38018624  0.38440201     1.10700
C1381       C  0.51256451  0.45266960  0.38488984     0.98600
C1382       C  0.51600345  0.37279040  0.31176211     0.98700
N1383       N  0.60715034  0.38109072  0.34561328    -0.06600
N1384       N  0.62169191  0.37387022  0.32923100    -0.62000
N1385       N  0.58774066  0.42931985  0.37090503    -0.06000
N1386       N  0.58743406  0.45180831  0.37120979    -0.58700
N1387       N  0.60453595  0.42072720  0.38339333    -0.07300
N1388       N  0.61602058  0.43811608  0.39275836    -0.61600
N1389       N  0.58978015  0.39150839  0.33565403    -0.06300
N1390       N  0.59192639  0.39160618  0.31325653    -0.58800
Mn1391     Mn  0.60748349  0.38119774  0.38529295     1.20200
Mn1392     Mn  0.56261894  0.40966573  0.35297692     1.10100
Cl1393     Cl  0.56312827  0.38090878  0.38498876    -0.86700
C1394       C  0.61173695  0.38070521  0.30891379     0.95600
C1395       C  0.60490532  0.45735696  0.38476942     0.95400
N1396       N  0.35298014  0.08920982  0.63324311    -0.06900
N1397       N  0.36583976  0.07197751  0.64145099    -0.59000
N1398       N  0.33873378  0.11509399  0.58422535    -0.06600
N1399       N  0.34081798  0.11449577  0.56181550    -0.61100
N1400       N  0.35541413  0.12664985  0.59388768    -0.06200
N1401       N  0.36927544  0.13443159  0.57739740    -0.59000
N1402       N  0.33571169  0.08033062  0.62193034    -0.05800
N1403       N  0.33627300  0.05792624  0.62216461    -0.61500
C1404       C  0.35488941  0.05242152  0.63428947     0.95300
C1405       C  0.35975001  0.12651726  0.55741620     0.95100
N1406       N  0.27054256  0.13071165  0.59206630    -0.07100
N1407       N  0.25786319  0.14114207  0.57655719    -0.59600
N1408       N  0.28337908  0.08224857  0.62059174    -0.05200
N1409       N  0.27948470  0.06009863  0.62230809    -0.60800
N1410       N  0.26692527  0.09411355  0.63039923    -0.07100
N1411       N  0.25133914  0.08025034  0.63908549    -0.59900
N1412       N  0.28662784  0.11848018  0.58209946    -0.04800
N1413       N  0.28530329  0.12020540  0.55957567    -0.60900
Mn1414     Mn  0.31112449  0.09883685  0.60211382     1.18400
C1415       C  0.26745147  0.13467768  0.55636711     0.97400
C1416       C  0.25952075  0.05907745  0.63392182     0.98000
N1417       N  0.35454134  0.16826380  0.63320076    -0.07100
N1418       N  0.36870711  0.18444044  0.62547429    -0.63400
N1419       N  0.33488564  0.14283091  0.68078292    -0.05900
N1420       N  0.33538047  0.14357803  0.70323039    -0.64100
N1421       N  0.35220117  0.13093083  0.67233950    -0.06600
N1422       N  0.36494449  0.12326379  0.68974413    -0.63700
N1423       N  0.33726748  0.17839810  0.64381411    -0.05500
N1424       N  0.33916605  0.20078646  0.64373077    -0.64400
Mn1425     Mn  0.35554858  0.12873758  0.63321207     1.10700
C1426       C  0.35863613  0.20467480  0.63231333     0.98600
C1427       C  0.35398952  0.13140002  0.70899308     0.98700
N1428       N  0.26666671  0.13233895  0.66680140    -0.06600
N1429       N  0.25243176  0.12188349  0.68084300    -0.62000
N1430       N  0.28520344  0.17989269  0.64047555    -0.06000
N1431       N  0.28305528  0.20228697  0.63815393    -0.58700
N1432       N  0.26948648  0.16918629  0.62871697    -0.07300
N1433       N  0.25618272  0.18410136  0.61808727    -0.61600
N1434       N  0.28247288  0.14307472  0.67842451    -0.06300
N1435       N  0.27936395  0.14028839  0.70066252    -0.58800
Mn1436     Mn  0.26754048  0.13168102  0.62942218     1.20200
Mn1437     Mn  0.30993079  0.16124293  0.66111367     1.10100
Cl1438     Cl  0.31149331  0.13013713  0.63148822    -0.86700
C1439       C  0.26071097  0.12677966  0.70190076     0.95600
C1440       C  0.26487488  0.20471318  0.62414534     0.95400
N1441       N  0.27051608  0.62987775  0.10050984    -0.06900
N1442       N  0.25639365  0.63984808  0.08592336    -0.59000
N1443       N  0.28588371  0.58098017  0.12647385    -0.06600
N1444       N  0.28066667  0.55904486  0.12555335    -0.61100
N1445       N  0.27017688  0.59250207  0.13784393    -0.06200
N1446       N  0.25407318  0.57869242  0.14521024    -0.59000
N1447       N  0.28639944  0.61837866  0.08941423    -0.05800
N1448       N  0.28352371  0.62022855  0.06705942    -0.61500
C1449       C  0.26489374  0.63392300  0.06508578     0.95300
C1450       C  0.26093949  0.55791802  0.13759292     0.95100
N1451       N  0.35578687  0.58935889  0.13666079    -0.07100
N1452       N  0.36935085  0.57264806  0.14465888    -0.59600
N1453       N  0.33844624  0.61681858  0.08912147    -0.05200
N1454       N  0.33913879  0.61748267  0.06665754    -0.60800
N1455       N  0.35531585  0.62838895  0.09836591    -0.07100
N1456       N  0.36798710  0.63726981  0.08142050    -0.59900
N1457       N  0.33874653  0.57996600  0.12538215    -0.04800
N1458       N  0.34028672  0.55750116  0.12524604    -0.60900
Mn1459     Mn  0.31248292  0.59875178  0.10750629     1.18400
C1460       C  0.35926259  0.55278871  0.13726055     0.97400
C1461       C  0.35746320  0.63018354  0.06157560     0.98000
N1462       N  0.26978276  0.62955703  0.17552238    -0.07100
N1463       N  0.25466748  0.62061278  0.18969756    -0.63400
N1464       N  0.28640981  0.67790083  0.14984829    -0.05900
N1465       N  0.28425809  0.70026162  0.14702984    -0.64100
N1466       N  0.27062793  0.66707611  0.13827804    -0.06600
N1467       N  0.25735931  0.68177579  0.12733357    -0.63700
N1468       N  0.28582198  0.64011158  0.18700126    -0.05500
N1469       N  0.28199520  0.63869233  0.20926094    -0.64400
Mn1470     Mn  0.26951366  0.62976971  0.13806689     1.10700
C1471       C  0.26251120  0.62647146  0.21070806     0.98600
C1472       C  0.26604887  0.70248710  0.13294352     0.98700
N1473       N  0.35533791  0.66804464  0.13945323    -0.06600
N1474       N  0.36833549  0.68483459  0.13106722    -0.62000
N1475       N  0.33902501  0.64066129  0.18739961    -0.06000
N1476       N  0.34127865  0.64090975  0.20984056    -0.58700
N1477       N  0.35590358  0.62930427  0.17734592    -0.07300
N1478       N  0.36996050  0.62121757  0.19350446    -0.61600
N1479       N  0.33855664  0.67734742  0.15145884    -0.06300
N1480       N  0.33964135  0.69976784  0.15165312    -0.58800
Mn1481     Mn  0.35722999  0.62876876  0.13789492     1.20200
Mn1482     Mn  0.31247830  0.65911726  0.16927233     1.10100
Cl1483     Cl  0.31316508  0.62903491  0.13826866    -0.86700
C1484       C  0.35810747  0.70458886  0.13898709     0.95600
C1485       C  0.36047909  0.62884676  0.21368463     0.95400
N1486       N  0.47664468  0.13059756  0.08936221    -0.06900
N1487       N  0.49003833  0.12238853  0.07301845    -0.59000
N1488       N  0.46304392  0.17738189  0.12061084    -0.06600
N1489       N  0.46670045  0.19934719  0.12464627    -0.61100
N1490       N  0.47955370  0.16484821  0.12937610    -0.06200
N1491       N  0.49463974  0.17782721  0.13971551    -0.59000
N1492       N  0.46031874  0.14324170  0.08045840    -0.05800
N1493       N  0.46207624  0.14401492  0.05793950    -0.61500
C1494       C  0.48063848  0.13093897  0.05355475     0.95300
C1495       C  0.48636469  0.19928689  0.13695331     0.95100
N1496       N  0.39283765  0.16808999  0.13254559    -0.07100
N1497       N  0.37856039  0.18457647  0.13996738    -0.59600
N1498       N  0.40840245  0.14370491  0.08323435    -0.05200
N1499       N  0.40707428  0.14359823  0.06072914    -0.60800
N1500       N  0.39254240  0.13077683  0.09276003    -0.07100
N1501       N  0.38010967  0.12133533  0.07606265    -0.59900
N1502       N  0.41004578  0.17788521  0.12181104    -0.04800
N1503       N  0.40807513  0.20020994  0.12166752    -0.60900
Mn1504     Mn  0.43534024  0.16089968  0.10151675     1.18400
C1505       C  0.38855815  0.20469184  0.13287205     0.97400
C1506       C  0.38952746  0.12972511  0.05612437     0.98000
N1507       N  0.48201809  0.12555368  0.16394648    -0.07100
N1508       N  0.49799555  0.13381063  0.17744877    -0.63400
N1509       N  0.46308340  0.07921954  0.13677844    -0.05900
N1510       N  0.46511389  0.05699176  0.13312489    -0.64100
N1511       N  0.47824849  0.09048058  0.12465105    -0.06600
N1512       N  0.49109355  0.07617945  0.11264221    -0.63700
N1513       N  0.46643900  0.11480279  0.17601300    -0.05500
N1514       N  0.47145670  0.11531343  0.19806935    -0.64400
Mn1515     Mn  0.47989731  0.12772605  0.12665702     1.10700
C1516       C  0.49091213  0.12764060  0.19864998     0.98600
C1517       C  0.48251326  0.05528736  0.11780997     0.98700
N1518       N  0.39368520  0.08923838  0.13250291    -0.06600
N1519       N  0.37926703  0.07281391  0.12607659    -0.62000
N1520       N  0.41317239  0.11482475  0.17992505    -0.06000
N1521       N  0.41248312  0.11374265  0.20243060    -0.58700
N1522       N  0.39539919  0.12617828  0.17167500    -0.07300
N1523       N  0.38224901  0.13307260  0.18923189    -0.61600
N1524       N  0.41135283  0.07949457  0.14262676    -0.06300
N1525       N  0.40957141  0.05712164  0.14335885    -0.58800
Mn1526     Mn  0.39195997  0.12856799  0.13234661     1.20200
Mn1527     Mn  0.43854556  0.09699878  0.15914274     1.10100
Cl1528     Cl  0.43618272  0.12856695  0.12997819    -0.86700
C1529       C  0.38967161  0.05281613  0.13306910     0.95600
C1530       C  0.39331067  0.12511156  0.20846232     0.95400
N1531       N  0.33634888  0.14619891  0.38197522    -0.06900
N1532       N  0.31923538  0.13343234  0.39005015    -0.59000
N1533       N  0.36382410  0.16054721  0.33350849    -0.06600
N1534       N  0.36387147  0.15860083  0.31102659    -0.61100
N1535       N  0.37486270  0.14343130  0.34342266    -0.06200
N1536       N  0.38290050  0.12942026  0.32704037    -0.59000
N1537       N  0.32757820  0.16358545  0.37047421    -0.05800
N1538       N  0.30517239  0.16313414  0.37045880    -0.61500
C1539       C  0.29974779  0.14439484  0.38262138     0.95300
C1540       C  0.37574684  0.13929205  0.30682692     0.95100
N1541       N  0.37919637  0.22884071  0.34329239    -0.07100
N1542       N  0.38923292  0.24234002  0.32822022    -0.59600
N1543       N  0.33015694  0.21632392  0.37011958    -0.05200
N1544       N  0.30804759  0.22037667  0.37214332    -0.60800
N1545       N  0.34189183  0.23220050  0.38070489    -0.07100
N1546       N  0.32800754  0.24741955  0.39019977    -0.59900
N1547       N  0.36744808  0.21293936  0.33278866    -0.04800
N1548       N  0.36919769  0.21515013  0.31037184    -0.60900
Mn1549     Mn  0.34698811  0.18833224  0.35153754     1.18400
C1550       C  0.38310136  0.23335970  0.30773947     0.97400
C1551       C  0.30688685  0.23983493  0.38467124     0.98000
N1552       N  0.41469033  0.14293176  0.38428729    -0.07100
N1553       N  0.43136736  0.12874498  0.37713771    -0.63400
N1554       N  0.38766209  0.16283415  0.43152943    -0.05900
N1555       N  0.38716759  0.16241826  0.45401675    -0.64100
N1556       N  0.37602181  0.14576052  0.42261075    -0.06600
N1557       N  0.36723140  0.13331921  0.43978720    -0.63700
N1558       N  0.42409425  0.16023820  0.39513495    -0.05500
N1559       N  0.44633063  0.15849425  0.39555402    -0.64400
Mn1560     Mn  0.37546521  0.14286081  0.38309650     1.10700
C1561       C  0.45116228  0.13895870  0.38456741     0.98600
C1562       C  0.37444526  0.14414736  0.45942086     0.98700
N1563       N  0.37969072  0.23220010  0.41827788    -0.06600
N1564       N  0.37313369  0.24894857  0.43206465    -0.62000
N1565       N  0.42668965  0.21241097  0.39285048    -0.06000
N1566       N  0.44893901  0.21570333  0.39347361    -0.58700
N1567       N  0.41655239  0.22853736  0.38083038    -0.07300
N1568       N  0.43172609  0.24314045  0.37279183    -0.61600
N1569       N  0.38999318  0.21591044  0.42997270    -0.06300
N1570       N  0.39093908  0.22119373  0.45195641    -0.58800
Mn1571     Mn  0.37925461  0.23119957  0.38066390     1.20200
Mn1572     Mn  0.40709355  0.18761975  0.41251160     1.10100
Cl1573     Cl  0.37713884  0.18729471  0.38200628    -0.86700
C1574       C  0.38021490  0.24173005  0.45294598     0.95600
C1575       C  0.45188581  0.23462238  0.38046321     0.95400
N1576       N  0.58459465  0.77340439  0.63232866    -0.06900
N1577       N  0.56956934  0.75860645  0.64026432    -0.59000
N1578       N  0.61382778  0.78993354  0.58580884    -0.06600
N1579       N  0.61649003  0.78650775  0.56362144    -0.61100
N1580       N  0.62409494  0.77370730  0.59760300    -0.06200
N1581       N  0.63396721  0.75883255  0.58368647    -0.59000
N1582       N  0.57429616  0.78943950  0.62033058    -0.05800
N1583       N  0.55207418  0.78598029  0.61968150    -0.61500
C1584       C  0.54938927  0.76672740  0.63218798     0.95300
C1585       C  0.62909558  0.76705545  0.56249750     0.95100
N1586       N  0.62200288  0.85987945  0.59554896    -0.07100
N1587       N  0.62982540  0.87399886  0.57929042    -0.59600
N1588       N  0.57392860  0.84175835  0.62082755    -0.05200
N1589       N  0.55156973  0.84134035  0.62204982    -0.60800
N1590       N  0.58256168  0.85852539  0.63318223    -0.07100
N1591       N  0.56536014  0.86992550  0.64320797    -0.59900
N1592       N  0.61136890  0.84275386  0.58552981    -0.04800
N1593       N  0.61138451  0.84476463  0.56310774    -0.60900
Mn1594     Mn  0.59322705  0.81613109  0.60280307     1.18400
C1595       C  0.62286512  0.86411011  0.55914007     0.97400
C1596       C  0.54607082  0.85881695  0.63591419     0.98000
N1597       N  0.65922859  0.77409363  0.63733967    -0.07100
N1598       N  0.67514589  0.76077348  0.62815316    -0.63400
N1599       N  0.62948465  0.79051813  0.68380587    -0.05900
N1600       N  0.62686548  0.78787832  0.70606806    -0.64100
N1601       N  0.61947497  0.77396454  0.67253931    -0.06600
N1602       N  0.60983803  0.75950245  0.68701815    -0.63700
N1603       N  0.66874869  0.79062735  0.64902095    -0.05500
N1604       N  0.69111384  0.78922349  0.64816534    -0.64400
Mn1605     Mn  0.62186633  0.77279004  0.63500772     1.10700
C1606       C  0.69488614  0.77057031  0.63523603     0.98600
C1607       C  0.61468235  0.76845581  0.70792556     0.98700
N1608       N  0.62136157  0.86017119  0.67446559    -0.06600
N1609       N  0.61489630  0.87452086  0.69123256    -0.62000
N1610       N  0.66935027  0.84216495  0.64956557    -0.06000
N1611       N  0.69175417  0.84200494  0.64967339    -0.58700
N1612       N  0.66101821  0.85916210  0.63719064    -0.07300
N1613       N  0.67853541  0.87106284  0.62849758    -0.61600
N1614       N  0.63118346  0.84221659  0.68393869    -0.06300
N1615       N  0.63160809  0.84356431  0.70627316    -0.58800
Mn1616     Mn  0.62168941  0.86126751  0.63498053     1.20200
Mn1617     Mn  0.64964060  0.81640610  0.66669707     1.10100
Cl1618     Cl  0.62158860  0.81686495  0.63480293    -0.86700
C1619       C  0.62156997  0.86358041  0.71110371     0.95600
C1620       C  0.69769739  0.85987871  0.63660138     0.95400
N1621       N  0.23028854  0.34207890  0.38865470    -0.06900
N1622       N  0.24501828  0.32817400  0.39880599    -0.59000
N1623       N  0.21482469  0.36616922  0.33873922    -0.06600
N1624       N  0.21831063  0.36703231  0.31645014    -0.61100
N1625       N  0.23026248  0.37804500  0.34970970    -0.06200
N1626       N  0.24474328  0.38731832  0.33499763    -0.59000
N1627       N  0.21494927  0.33025930  0.37745041    -0.05800
N1628       N  0.21873303  0.30810373  0.37979729    -0.61500
C1629       C  0.23737532  0.30696143  0.39340399     0.95300
C1630       C  0.23703747  0.38017705  0.31427320     0.95100
N1631       N  0.14461198  0.37435150  0.34467750    -0.07100
N1632       N  0.13187685  0.38180212  0.32710688    -0.59600
N1633       N  0.16296183  0.32801433  0.37409426    -0.05200
N1634       N  0.16272595  0.30559818  0.37416395    -0.60800
N1635       N  0.14464898  0.33677655  0.38400433    -0.07100
N1636       N  0.13135158  0.31952531  0.39100118    -0.59900
N1637       N  0.16255088  0.36331877  0.33634701    -0.04800
N1638       N  0.16245600  0.36297465  0.31383072    -0.60900
Mn1639     Mn  0.18881037  0.34681159  0.35653849     1.18400
C1640       C  0.14345375  0.37447953  0.30782268     0.97400
C1641       C  0.14315202  0.30002622  0.38465997     0.98000
N1642       N  0.22688177  0.41687765  0.38578338    -0.07100
N1643       N  0.24091279  0.43148419  0.37595111    -0.63400
N1644       N  0.21050992  0.39247159  0.43475735    -0.05900
N1645       N  0.21295005  0.39278925  0.45721914    -0.64100
N1646       N  0.22744747  0.38134215  0.42490070    -0.06600
N1647       N  0.24189129  0.37366227  0.44053145    -0.63700
N1648       N  0.20991735  0.42782229  0.39581411    -0.05500
N1649       N  0.21199446  0.45015803  0.39311529    -0.64400
Mn1650     Mn  0.22956873  0.37957013  0.38732373     1.10700
C1651       C  0.23124019  0.45216260  0.38035569     0.98600
C1652       C  0.23252800  0.38097890  0.46056984     0.98700
N1653       N  0.14249951  0.37740319  0.42350282    -0.06600
N1654       N  0.13054525  0.36716210  0.44016214    -0.62000
N1655       N  0.15750130  0.42582042  0.39590842    -0.06000
N1656       N  0.15563779  0.44816907  0.39540610    -0.58700
N1657       N  0.14105497  0.41577619  0.38433198    -0.07300
N1658       N  0.12744455  0.43212829  0.37549712    -0.61600
N1659       N  0.15834518  0.39024740  0.43301765    -0.06300
N1660       N  0.15750653  0.38938340  0.45546707    -0.58800
Mn1661     Mn  0.14137399  0.37609399  0.38407831     1.20200
Mn1662     Mn  0.18393718  0.40930844  0.41500275     1.10100
Cl1663     Cl  0.18551350  0.37797952  0.38570022    -0.86700
C1664       C  0.14031663  0.37508302  0.45999127     0.95600
C1665       C  0.13706957  0.45234309  0.38275601     0.95400
N1666       N  0.58609537  0.62926163  0.86974286    -0.06900
N1667       N  0.56977295  0.63785392  0.88354976    -0.59000
N1668       N  0.61248046  0.58130429  0.85117521    -0.06600
N1669       N  0.61295322  0.55888544  0.85205485    -0.61100
N1670       N  0.62480748  0.59056376  0.86756958    -0.06200
N1671       N  0.63411195  0.57371821  0.88006770    -0.59000
N1672       N  0.57609487  0.61777671  0.85312891    -0.05800
N1673       N  0.55378199  0.61813961  0.85512572    -0.61500
C1674       C  0.54956365  0.63055639  0.87398936     0.95300
C1675       C  0.62636417  0.55396672  0.86997067     0.95100
N1676       N  0.62107815  0.59210808  0.78210418    -0.07100
N1677       N  0.62889073  0.57771298  0.76653892    -0.59600
N1678       N  0.57347353  0.61829079  0.80061775    -0.05200
N1679       N  0.55108456  0.61885358  0.79824482    -0.60800
N1680       N  0.58356342  0.62916717  0.78371442    -0.07100
N1681       N  0.56819587  0.63755067  0.76938633    -0.59900
N1682       N  0.61069709  0.58105855  0.79869155    -0.04800
N1683       N  0.61116879  0.55879452  0.79485067    -0.60900
Mn1684     Mn  0.59304716  0.59946477  0.82603763     1.18400
C1685       C  0.62260518  0.55700465  0.77474212     0.97400
C1686       C  0.54805171  0.63113057  0.77885451     0.98000
N1687       N  0.66516734  0.63046470  0.86537808    -0.07100
N1688       N  0.68262625  0.62166399  0.87742213    -0.63400
N1689       N  0.63667112  0.67859506  0.84965842    -0.05900
N1690       N  0.63687507  0.70102958  0.85107756    -0.64100
N1691       N  0.62662030  0.66917622  0.86756660    -0.06600
N1692       N  0.61968341  0.68586236  0.88169481    -0.63700
N1693       N  0.67357517  0.64197163  0.84781684    -0.05500
N1694       N  0.69604944  0.64126122  0.84753285    -0.64400
Mn1695     Mn  0.62575304  0.62986056  0.86935420     1.10700
C1696       C  0.70199081  0.62863129  0.86592075     0.98600
C1697       C  0.62630555  0.70574483  0.87097938     0.98700
N1698       N  0.62049539  0.66634058  0.78154413    -0.06600
N1699       N  0.60890599  0.68031299  0.76807057    -0.62000
N1700       N  0.67003237  0.64087364  0.79545528    -0.06000
N1701       N  0.69220022  0.63905163  0.79188411    -0.58700
N1702       N  0.65859346  0.62941430  0.77997850    -0.07300
N1703       N  0.67285611  0.61950403  0.76535433    -0.61600
N1704       N  0.63182947  0.67784794  0.79706342    -0.06300
N1705       N  0.62811240  0.70003525  0.79456806    -0.58800
Mn1706     Mn  0.62102215  0.62924713  0.78104363     1.20200
Mn1707     Mn  0.65321567  0.66014068  0.82246583     1.10100
Cl1708     Cl  0.62329980  0.62968731  0.82517323    -0.86700
C1709       C  0.61347385  0.70130829  0.77661183     0.95600
C1710       C  0.69380912  0.62547158  0.77321680     0.95400
N1711       N  0.33058090  0.37778602  0.53679354    -0.06900
N1712       N  0.31563138  0.36825570  0.52297059    -0.59000
N1713       N  0.35471844  0.42748792  0.55155737    -0.06600
N1714       N  0.35435030  0.44987839  0.54884581    -0.61100
N1715       N  0.36521993  0.41737691  0.53437694    -0.06200
N1716       N  0.37246410  0.43275707  0.51946713    -0.59000
N1717       N  0.32005436  0.38845522  0.55363404    -0.05800
N1718       N  0.29771621  0.38653807  0.55165402    -0.61500
C1719       C  0.29521047  0.37353143  0.53266372     0.95300
C1720       C  0.36551506  0.45287690  0.52884686     0.95100
N1721       N  0.37095354  0.41774018  0.61983718    -0.07100
N1722       N  0.38038219  0.43458765  0.63204237    -0.59600
N1723       N  0.32310134  0.38959522  0.60571743    -0.05200
N1724       N  0.30083942  0.38903684  0.60809686    -0.60800
N1725       N  0.33375943  0.37783504  0.62180801    -0.07100
N1726       N  0.31795094  0.36858885  0.63562143    -0.59900
N1727       N  0.35776512  0.42702025  0.60397234    -0.04800
N1728       N  0.35764631  0.44948669  0.60506384    -0.60900
Mn1729     Mn  0.33879949  0.40830211  0.57879482     1.18400
C1730       C  0.37170723  0.45433438  0.62245168     0.97400
C1731       C  0.29746058  0.37601742  0.62661024     0.98000
N1732       N  0.40490269  0.38230905  0.53087342    -0.07100
N1733       N  0.41755964  0.39332479  0.51573948    -0.63400
N1734       N  0.38342486  0.33195913  0.54756340    -0.05900
N1735       N  0.38457837  0.30982217  0.54315437    -0.64100
N1736       N  0.37030286  0.34245735  0.53262085    -0.06600
N1737       N  0.36213446  0.32764080  0.51765064    -0.63700
N1738       N  0.41788421  0.37186083  0.54597588    -0.05500
N1739       N  0.43966895  0.37550342  0.54142476    -0.64400
Mn1740     Mn  0.36764715  0.37994134  0.53288489     1.10700
C1741       C  0.43928311  0.38914757  0.52257757     0.98600
C1742       C  0.37087051  0.30725853  0.52473429     0.98700
N1743       N  0.37586887  0.33910362  0.61787959    -0.06600
N1744       N  0.36804333  0.32157461  0.63038983    -0.62000
N1745       N  0.42177319  0.36889735  0.59891616    -0.06000
N1746       N  0.44419976  0.36863106  0.59952910    -0.58700
N1747       N  0.41287590  0.37855839  0.61737346    -0.07300
N1748       N  0.43002616  0.38506572  0.63103852    -0.61600
N1749       N  0.38718362  0.33082243  0.60007013    -0.06300
N1750       N  0.38737349  0.30835890  0.60005448    -0.58800
Mn1751     Mn  0.37340927  0.37826417  0.62102441     1.20200
Mn1752     Mn  0.40282779  0.35081539  0.57315581     1.10100
Cl1753     Cl  0.37075806  0.37931943  0.57691315    -0.86700
C1754       C  0.37551739  0.30238417  0.61884407     0.95600
C1755       C  0.44962972  0.37869909  0.61943840     0.95400
N1756       N  0.38870086  0.66758694  0.63603569    -0.06900
N1757       N  0.37586753  0.68472765  0.64438318    -0.59000
N1758       N  0.40735645  0.63834352  0.58948723    -0.06600
N1759       N  0.40674026  0.63821683  0.56705755    -0.61100
N1760       N  0.38947663  0.62811174  0.59853626    -0.06200
N1761       N  0.37614348  0.62077186  0.58146669    -0.59000
N1762       N  0.40586016  0.67642763  0.62429693    -0.05800
N1763       N  0.40501064  0.69895640  0.62409934    -0.61500
C1764       C  0.38641238  0.70422434  0.63657978     0.95300
C1765       C  0.38742556  0.62727821  0.56177077     0.95100
N1766       N  0.47557298  0.62586524  0.60363381    -0.07100
N1767       N  0.49124800  0.61666393  0.59000612    -0.59600
N1768       N  0.45818308  0.67563939  0.62671160    -0.05200
N1769       N  0.46150747  0.69792680  0.62632847    -0.60800
N1770       N  0.47379394  0.66524584  0.63909236    -0.07100
N1771       N  0.48818544  0.68032786  0.64759654    -0.59900
N1772       N  0.45994263  0.63656760  0.59147322    -0.04800
N1773       N  0.46459494  0.63494460  0.56937456    -0.60900
Mn1774     Mn  0.43277126  0.65679599  0.60782018     1.18400
C1775       C  0.48399787  0.62220818  0.56861145     0.97400
C1776       C  0.48005697  0.70066750  0.63970145     0.98000
N1777       N  0.38862229  0.58879311  0.63973898    -0.07100
N1778       N  0.37695575  0.57182981  0.62986028    -0.63400
N1779       N  0.40275809  0.61713332  0.68790663    -0.05900
N1780       N  0.40015771  0.61723253  0.71025070    -0.64100
N1781       N  0.38608318  0.62820436  0.67744531    -0.06600
N1782       N  0.37162784  0.63633468  0.69337592    -0.63700
N1783       N  0.40498623  0.57970417  0.65243228    -0.05500
N1784       N  0.40486167  0.55723169  0.65155537    -0.64400
Mn1785     Mn  0.38647048  0.62820890  0.63791513     1.10700
C1786       C  0.38746974  0.55214279  0.63756038     0.98600
C1787       C  0.38085585  0.62915280  0.71386596     0.98700
N1788       N  0.47158667  0.62995649  0.67873680    -0.06600
N1789       N  0.48554705  0.63992823  0.69331803    -0.62000
N1790       N  0.45739883  0.57985332  0.65489556    -0.06000
N1791       N  0.46068301  0.55748240  0.65516608    -0.58700
N1792       N  0.47385850  0.59019205  0.64367252    -0.07300
N1793       N  0.48878006  0.57500366  0.63584602    -0.61600
N1794       N  0.45524891  0.61922638  0.68980409    -0.06300
N1795       N  0.45782079  0.62146929  0.71216222    -0.58800
Mn1796     Mn  0.47448870  0.62774813  0.64131952     1.20200
Mn1797     Mn  0.43002136  0.59882105  0.67148827     1.10100
Cl1798     Cl  0.43053658  0.62785419  0.63961076    -0.86700
C1799       C  0.47652235  0.63483575  0.71410414     0.95600
C1800       C  0.48026784  0.55473303  0.64321005     0.95400
N1801       N  0.65675712  0.48556274  0.63094901    -0.06900
N1802       N  0.67025518  0.50159338  0.63922113    -0.59000
N1803       N  0.63136979  0.46532644  0.58390239    -0.06600
N1804       N  0.62958842  0.46724393  0.56146307    -0.61100
N1805       N  0.61902400  0.48108695  0.59427778    -0.06200
N1806       N  0.60862450  0.49420780  0.57905751    -0.59000
N1807       N  0.66890757  0.46964480  0.62059221    -0.05800
N1808       N  0.69088998  0.47449211  0.62144989    -0.61500
C1809       C  0.69155862  0.49448059  0.63313040     0.95300
C1810       C  0.61510873  0.48516771  0.55862422     0.95100
N1811       N  0.62619925  0.39585400  0.59503973    -0.07100
N1812       N  0.62013743  0.38123460  0.57850969    -0.59600
N1813       N  0.67242015  0.41668425  0.62203430    -0.05200
N1814       N  0.69484573  0.41661603  0.62235350    -0.60800
N1815       N  0.66391820  0.39913598  0.63342979    -0.07100
N1816       N  0.68127129  0.38673403  0.64182932    -0.59900
N1817       N  0.63667335  0.41336013  0.58545680    -0.04800
N1818       N  0.63794433  0.41126470  0.56313415    -0.60900
Mn1819     Mn  0.65257106  0.44121067  0.60290640     1.18400
C1820       C  0.62773073  0.39134999  0.55859017     0.97400
C1821       C  0.70058975  0.39802320  0.63468065     0.98000
N1822       N  0.58173482  0.48058368  0.63286682    -0.07100
N1823       N  0.56569461  0.49441295  0.62471478    -0.63400
N1824       N  0.61041999  0.46735502  0.68101445    -0.05900
N1825       N  0.61252314  0.47084437  0.70322514    -0.64100
N1826       N  0.61988176  0.48401927  0.66927611    -0.06600
N1827       N  0.62875325  0.49930858  0.68327159    -0.63700
N1828       N  0.57241749  0.46418360  0.64506683    -0.05500
N1829       N  0.55001000  0.46636520  0.64559655    -0.64400
Mn1830     Mn  0.61923458  0.48370795  0.63173154     1.10700
C1831       C  0.54596199  0.48502604  0.63253419     0.98600
C1832       C  0.62429950  0.49063016  0.70438442     0.98700
N1833       N  0.62393941  0.39763408  0.67365528    -0.06600
N1834       N  0.63311079  0.38512302  0.69056653    -0.62000
N1835       N  0.57534689  0.41223985  0.64713855    -0.06000
N1836       N  0.55303410  0.41075584  0.64752735    -0.58700
N1837       N  0.58492777  0.39524305  0.63564774    -0.07300
N1838       N  0.56821202  0.38162435  0.62793256    -0.61600
N1839       N  0.61225115  0.41473523  0.68279130    -0.06300
N1840       N  0.61304452  0.41440245  0.70525367    -0.58800
Mn1841     Mn  0.62470760  0.39521891  0.63438276     1.20200
Mn1842     Mn  0.59260856  0.43952776  0.66416671     1.10100
Cl1843     Cl  0.62230643  0.43969629  0.63327622    -0.86700
C1844       C  0.62594713  0.39604392  0.71020857     0.95600
C1845       C  0.54822351  0.39177908  0.63568676     0.95400
N1846       N  0.33069805  0.61266672  0.38741710    -0.06900
N1847       N  0.31415415  0.62617432  0.37897613    -0.59000
N1848       N  0.35588710  0.59691485  0.43637227    -0.06600
N1849       N  0.35566052  0.59816873  0.45881804    -0.61100
N1850       N  0.36797542  0.61348265  0.42700299    -0.06200
N1851       N  0.37646908  0.62643028  0.44383426    -0.59000
N1852       N  0.32105959  0.59572720  0.39881545    -0.05800
N1853       N  0.29868478  0.59725293  0.39857898    -0.61500
C1854       C  0.29418978  0.61611275  0.38623514     0.95300
C1855       C  0.36841280  0.61646832  0.46366099     0.95100
N1856       N  0.36978653  0.52846953  0.42843000    -0.07100
N1857       N  0.37857220  0.51462765  0.44406602    -0.59600
N1858       N  0.32201800  0.54300499  0.39960803    -0.05200
N1859       N  0.29986559  0.53971140  0.39753819    -0.60800
N1860       N  0.33366342  0.52637905  0.38978682    -0.07100
N1861       N  0.31959809  0.51132185  0.38070766    -0.59900
N1862       N  0.35754400  0.54466289  0.43824879    -0.04800
N1863       N  0.35754488  0.54222609  0.46073128    -0.60900
Mn1864     Mn  0.33890281  0.57012296  0.41831458     1.18400
C1865       C  0.37105875  0.52368957  0.46414418     0.97400
C1866       C  0.29854793  0.51988055  0.38574962     0.98000
N1867       N  0.40952647  0.61280179  0.38752770    -0.07100
N1868       N  0.42606697  0.62676726  0.39482888    -0.63400
N1869       N  0.38386212  0.59351259  0.33968471    -0.05900
N1870       N  0.38454771  0.59385901  0.31718795    -0.64100
N1871       N  0.37247824  0.61123665  0.34808665    -0.06600
N1872       N  0.36516518  0.62417121  0.33057810    -0.63700
N1873       N  0.41915150  0.59513282  0.37715567    -0.05500
N1874       N  0.44148834  0.59649476  0.37721231    -0.64400
Mn1875     Mn  0.37015747  0.61432043  0.38748857     1.10700
C1876       C  0.44608769  0.61612878  0.38812224     0.98600
C1877       C  0.37299725  0.61288157  0.31136963     0.98700
N1878       N  0.37286098  0.52478644  0.35358404    -0.06600
N1879       N  0.36568894  0.50854999  0.33970517    -0.62000
N1880       N  0.41964421  0.54285770  0.38014176    -0.06000
N1881       N  0.44190746  0.53954730  0.38106827    -0.58700
N1882       N  0.40876430  0.52692730  0.39162579    -0.07300
N1883       N  0.42349316  0.51220546  0.40055653    -0.61600
N1884       N  0.38403179  0.54048818  0.34204552    -0.06300
N1885       N  0.38488236  0.53528000  0.32004565    -0.58800
Mn1886     Mn  0.37125097  0.52589113  0.39097987     1.20200
Mn1887     Mn  0.40167656  0.56810505  0.35961646     1.10100
Cl1888     Cl  0.37043046  0.57002909  0.38901328    -0.86700
C1889       C  0.37302830  0.51551987  0.31881949     0.95600
C1890       C  0.44415632  0.52056952  0.39414797     0.95400
N1891       N  0.58532211  0.13025243  0.89556571    -0.06900
N1892       N  0.56875647  0.12145972  0.88239961    -0.59000
N1893       N  0.61281954  0.17717174  0.91648480    -0.06600
N1894       N  0.61358396  0.19965390  0.91648996    -0.61100
N1895       N  0.62470764  0.16824094  0.89939059    -0.06200
N1896       N  0.63392620  0.18544604  0.88731238    -0.59000
N1897       N  0.57556375  0.14204192  0.91225530    -0.05800
N1898       N  0.55323046  0.14173357  0.91094663    -0.61500
C1899       C  0.54869524  0.12898807  0.89248795     0.95300
C1900       C  0.62672841  0.20507216  0.89842052     0.95100
N1901       N  0.61885822  0.16182447  0.98567929    -0.07100
N1902       N  0.62710220  0.17534409  0.00178139    -0.59600
N1903       N  0.57176270  0.13825279  0.96409244    -0.05200
N1904       N  0.54928698  0.13807143  0.96544422    -0.60800
N1905       N  0.58088123  0.12553246  0.98028257    -0.07100
N1906       N  0.56469209  0.11633024  0.99311408    -0.59900
N1907       N  0.60952699  0.17410668  0.96928012    -0.04800
N1908       N  0.61102213  0.19616739  0.97384875    -0.60900
Mn1909     Mn  0.59245368  0.15810017  0.94040301     1.18400
C1910       C  0.62202419  0.19676639  0.99415757     0.97400
C1911       C  0.54505740  0.12403788  0.98335444     0.98000
N1912       N  0.66423868  0.12633482  0.90004997    -0.07100
N1913       N  0.68178471  0.13390612  0.88743331    -0.63400
N1914       N  0.63612982  0.07881297  0.91342832    -0.05900
N1915       N  0.63687869  0.05650677  0.91096075    -0.64100
N1916       N  0.62578447  0.08903370  0.89610038    -0.06600
N1917       N  0.61904715  0.07294700  0.88130856    -0.63700
N1918       N  0.67245440  0.11441468  0.91747810    -0.05500
N1919       N  0.69491410  0.11364773  0.91716466    -0.64400
Mn1920     Mn  0.62500611  0.12854141  0.89606405     1.10700
C1921       C  0.70088987  0.12574826  0.89850318     0.98600
C1922       C  0.62629587  0.05269956  0.89106045     0.98700
N1923       N  0.61811918  0.08677326  0.98142295    -0.06600
N1924       N  0.60876132  0.07181209  0.99550040    -0.62000
N1925       N  0.66790283  0.11268532  0.97049847    -0.06000
N1926       N  0.68986802  0.11403155  0.97532290    -0.58700
N1927       N  0.65551061  0.12284332  0.98636936    -0.07300
N1928       N  0.66874589  0.13131584  0.00243439    -0.61600
N1929       N  0.63065749  0.07621077  0.96591665    -0.06300
N1930       N  0.63008005  0.05380126  0.96908369    -0.58800
Mn1931     Mn  0.61821685  0.12415912  0.98421657     1.20200
Mn1932     Mn  0.65195966  0.09545026  0.94177124     1.10100
Cl1933     Cl  0.62197939  0.12657035  0.94038756    -0.86700
C1934       C  0.61603152  0.05126023  0.98740356     0.95600
C1935       C  0.69013285  0.12602716  0.99515520     0.95400
N1936       N  0.15944503  0.97976457  0.63721008    -0.06900
N1937       N  0.17347403  0.99479743  0.64626302    -0.59000
N1938       N  0.13421771  0.96527860  0.58784145    -0.06600
N1939       N  0.13312135  0.96941651  0.56559879    -0.61100
N1940       N  0.12304345  0.98106841  0.59940548    -0.06200
N1941       N  0.11408258  0.99631966  0.58533469    -0.59000
N1942       N  0.17089880  0.96417691  0.62558454    -0.05800
N1943       N  0.19302442  0.96834906  0.62635295    -0.61500
C1944       C  0.19439051  0.98727718  0.63970267     0.95300
C1945       C  0.12020218  0.98871650  0.56426033     0.95100
N1946       N  0.12370552  0.89505636  0.59521638    -0.07100
N1947       N  0.11583978  0.88209523  0.57806665    -0.59600
N1948       N  0.17146747  0.91105574  0.62251407    -0.05200
N1949       N  0.19381150  0.90902627  0.62138077    -0.60800
N1950       N  0.16203239  0.89353460  0.63321375    -0.07100
N1951       N  0.17873023  0.87912244  0.63970847    -0.59900
N1952       N  0.13520017  0.91232652  0.58634502    -0.04800
N1953       N  0.13547044  0.91154151  0.56388226    -0.60900
Mn1954     Mn  0.15314121  0.93818836  0.60543160     1.18400
C1955       C  0.12343463  0.89283475  0.55848542     0.97400
C1956       C  0.19857702  0.88924018  0.63209747     0.98000
N1957       N  0.08477404  0.98035677  0.63629905    -0.07100
N1958       N  0.07019252  0.99522782  0.62735027    -0.63400
N1959       N  0.11003552  0.96313348  0.68478854    -0.05900
N1960       N  0.11042669  0.96600627  0.70719847    -0.64100
N1961       N  0.12127528  0.97947719  0.67434230    -0.06600
N1962       N  0.12971564  0.99392429  0.68946968    -0.63700
N1963       N  0.07377529  0.96394183  0.64692155    -0.05500
N1964       N  0.05153125  0.96712442  0.64547974    -0.64400
Mn1965     Mn  0.12218056  0.98085739  0.63682646     1.10700
C1966       C  0.04949196  0.98667809  0.63327278     0.98600
C1967       C  0.12275398  0.98525037  0.70991663     0.98700
N1968       N  0.12122969  0.89355211  0.67423799    -0.06600
N1969       N  0.12951760  0.88028884  0.69110301    -0.62000
N1970       N  0.07351341  0.91164377  0.64744311    -0.06000
N1971       N  0.05111311  0.91092683  0.64761718    -0.58700
N1972       N  0.08268177  0.89469134  0.63553789    -0.07300
N1973       N  0.06566551  0.88204862  0.62700935    -0.61600
N1974       N  0.10963849  0.91059716  0.68364173    -0.06300
N1975       N  0.10965901  0.90937760  0.70605928    -0.58800
Mn1976     Mn  0.12238055  0.89242987  0.63457656     1.20200
Mn1977     Mn  0.09170105  0.93724075  0.66577223     1.10100
Cl1978     Cl  0.12246729  0.93669571  0.63563811    -0.86700
C1979       C  0.12197254  0.89060141  0.71103309     0.95600
C1980       C  0.04601783  0.89260077  0.63495072     0.95400
N1981       N  0.12698955  0.66685752  0.98698599    -0.06900
N1982       N  0.13849671  0.68147440  0.99963894    -0.59000
N1983       N  0.07805424  0.64128772  0.97198947    -0.06600
N1984       N  0.05578353  0.64039905  0.97524411    -0.61100
N1985       N  0.08894470  0.63032329  0.98832339    -0.06200
N1986       N  0.07430974  0.62156852  0.00314253    -0.59000
N1987       N  0.11583016  0.67774051  0.97077660    -0.05800
N1988       N  0.11942516  0.69997766  0.97192466    -0.61500
C1989       C  0.13383802  0.70204839  0.98983485     0.95300
C1990       C  0.05371404  0.62807222  0.99472651     0.95100
N1991       N  0.08730396  0.62956824  0.90239455    -0.07100
N1992       N  0.07042326  0.62095639  0.88962798    -0.59600
N1993       N  0.11416322  0.67740291  0.91890646    -0.05200
N1994       N  0.11477495  0.69981098  0.91842800    -0.60800
N1995       N  0.12608062  0.66816125  0.90204835    -0.07100
N1996       N  0.13530199  0.68515401  0.88963242    -0.59900
N1997       N  0.07804157  0.64122112  0.91946674    -0.04800
N1998       N  0.05568039  0.64093818  0.91880070    -0.60900
Mn1999     Mn  0.09626784  0.65950655  0.94523618     1.18400
C2000       C  0.05067376  0.62834330  0.90033390     0.97400
C2001       C  0.12792107  0.70494299  0.90036166     0.98000
N2002       N  0.12576495  0.59202509  0.98881999    -0.07100
N2003       N  0.11533235  0.57799305  0.00309856    -0.63400
N2004       N  0.17465815  0.61691437  0.97266703    -0.05900
N2005       N  0.19690054  0.61779592  0.97607587    -0.64100
N2006       N  0.16361516  0.62851362  0.98849369    -0.06600
N2007       N  0.17810442  0.63760787  0.00311164    -0.63700
N2008       N  0.13688862  0.58038697  0.97304066    -0.05500
N2009       N  0.13436605  0.55816109  0.97627200    -0.64400
Mn2010     Mn  0.12628866  0.62947166  0.98899248     1.10700
C2011       C  0.12078223  0.55684718  0.99504615     0.98600
C2012       C  0.19885448  0.63077839  0.99512331     0.98700
N2013       N  0.16596636  0.62729711  0.90295122    -0.06600
N2014       N  0.18274472  0.63586467  0.89000127    -0.62000
N2015       N  0.13893529  0.57952046  0.92011340    -0.06000
N2016       N  0.13950225  0.55707852  0.91869731    -0.58700
N2017       N  0.12811931  0.58889484  0.90260591    -0.07300
N2018       N  0.12108287  0.57207874  0.88878983    -0.61600
N2019       N  0.17517135  0.61577514  0.92011485    -0.06300
N2020       N  0.19756453  0.61617417  0.91928568    -0.58800
Mn2021     Mn  0.12684126  0.62847526  0.90065014     1.20200
Mn2022     Mn  0.15657736  0.59789504  0.94644711     1.10100
Cl2023     Cl  0.12644243  0.62869576  0.94486896    -0.86700
C2024       C  0.20246168  0.62863226  0.90058124     0.95600
C2025       C  0.12837744  0.55217864  0.89926087     0.95400
N2026       N  0.88822394  0.58745502  0.13455485    -0.06900
N2027       N  0.87487370  0.57086434  0.12628744    -0.59000
N2028       N  0.90675395  0.61515862  0.18161881    -0.06600
N2029       N  0.90622819  0.61648757  0.20403263    -0.61100
N2030       N  0.89023779  0.62729790  0.17206702    -0.06200
N2031       N  0.87801215  0.63730590  0.18881580    -0.59000
N2032       N  0.90449808  0.57771123  0.14681728    -0.05800
N2033       N  0.90269104  0.55537560  0.14741893    -0.61500
C2034       C  0.88433707  0.55086728  0.13471556     0.95300
C2035       C  0.88845777  0.63025687  0.20879056     0.95100
N2036       N  0.97582208  0.62093252  0.17029251    -0.07100
N2037       N  0.99138872  0.62840475  0.18470453    -0.59600
N2038       N  0.95646671  0.57380247  0.14562538    -0.05200
N2039       N  0.95900444  0.55133743  0.14632223    -0.60800
N2040       N  0.97299086  0.58329387  0.13374099    -0.07100
N2041       N  0.98714749  0.56744995  0.12589641    -0.59900
N2042       N  0.95893993  0.61142379  0.18157828    -0.04800
N2043       N  0.96251633  0.61202521  0.20385449    -0.60900
Mn2044     Mn  0.93149401  0.59451145  0.16402616     1.18400
C2045       C  0.98277495  0.62268873  0.20554967     0.97400
C2046       C  0.97793557  0.54761210  0.13352057     0.98000
N2047       N  0.89199268  0.66635975  0.13022274    -0.07100
N2048       N  0.87866130  0.68391063  0.13665748    -0.63400
N2049       N  0.90824089  0.63763643  0.08354995    -0.05900
N2050       N  0.90708716  0.63832167  0.06111045    -0.64100
N2051       N  0.89030064  0.62756431  0.09273611    -0.06600
N2052       N  0.87636696  0.62120006  0.07574085    -0.63700
N2053       N  0.90993077  0.67459491  0.11932509    -0.05500
N2054       N  0.90923366  0.69709581  0.11810672    -0.64400
Mn2055     Mn  0.88837552  0.62711776  0.13237842     1.10700
C2056       C  0.88980155  0.70312703  0.12894530     0.98600
C2057       C  0.88733673  0.62811762  0.05596890     0.98700
N2058       N  0.97570499  0.62044304  0.09511219    -0.06600
N2059       N  0.99034518  0.61119786  0.08041808    -0.62000
N2060       N  0.96247047  0.67011478  0.12095895    -0.06000
N2061       N  0.96696606  0.69216347  0.12175777    -0.58700
N2062       N  0.97796807  0.65821099  0.13212810    -0.07300
N2063       N  0.99344477  0.67199674  0.14093246    -0.61600
N2064       N  0.96028083  0.63262029  0.08415129    -0.06300
N2065       N  0.96391206  0.63190420  0.06185765    -0.58800
Mn2066     Mn  0.97639860  0.62065761  0.13273825     1.20200
Mn2067     Mn  0.93525993  0.65385588  0.10198611     1.10100
Cl2068     Cl  0.93244336  0.62405234  0.13274261    -0.86700
C2069       C  0.98251158  0.61824043  0.05966429     0.95600
C2070       C  0.98613624  0.69314615  0.13450634     0.95400
N2071       N  0.89049806  0.16936471  0.63167501    -0.06900
N2072       N  0.87758130  0.18615811  0.64055502    -0.59000
N2073       N  0.90688015  0.14230368  0.58344770    -0.06600
N2074       N  0.90576520  0.14239312  0.56101654    -0.61100
N2075       N  0.88955792  0.13138866  0.59289920    -0.06200
N2076       N  0.87602269  0.12371300  0.57616623    -0.59000
N2077       N  0.90742654  0.17857823  0.61995739    -0.05800
N2078       N  0.90643397  0.20105829  0.62038037    -0.61500
C2079       C  0.88793967  0.20590349  0.63319968     0.95300
C2080       C  0.88664736  0.13096356  0.55641316     0.95100
N2081       N  0.97500615  0.12803302  0.59371512    -0.07100
N2082       N  0.98975859  0.11891992  0.57911131    -0.59600
N2083       N  0.95975922  0.17700065  0.62034587    -0.05200
N2084       N  0.96293517  0.19926644  0.62194445    -0.60800
N2085       N  0.97581807  0.16563598  0.63122609    -0.07100
N2086       N  0.99041611  0.18002916  0.64050580    -0.59900
N2087       N  0.95936283  0.13991818  0.58273991    -0.04800
N2088       N  0.96324351  0.13937303  0.56041264    -0.60900
Mn2089     Mn  0.93332047  0.15962118  0.60142786     1.18400
C2090       C  0.98194398  0.12573577  0.55835550     0.97400
C2091       C  0.98213549  0.20099028  0.63452866     0.98000
N2092       N  0.88942189  0.09068370  0.63297880    -0.07100
N2093       N  0.87595313  0.07432338  0.62448315    -0.63400
N2094       N  0.90769785  0.11740197  0.68081213    -0.05900
N2095       N  0.90815325  0.11918847  0.70321227    -0.64100
N2096       N  0.89093642  0.12957503  0.67177066    -0.06600
N2097       N  0.87955213  0.14010761  0.68874621    -0.63700
N2098       N  0.90632539  0.08078641  0.64426370    -0.05500
N2099       N  0.90483060  0.05836042  0.64392600    -0.64400
Mn2100     Mn  0.88829363  0.13018798  0.63237693     1.10700
C2101       C  0.88604505  0.05421141  0.63160550     0.98600
C2102       C  0.89071361  0.13326430  0.70834599     0.98700
N2103       N  0.97583839  0.12769400  0.66881750    -0.06600
N2104       N  0.99158536  0.13509801  0.68311670    -0.62000
N2105       N  0.95875187  0.07957652  0.64264242    -0.06000
N2106       N  0.96188660  0.05719317  0.64156765    -0.58700
N2107       N  0.97480523  0.09035176  0.63125093    -0.07300
N2108       N  0.98923048  0.07549180  0.62202078    -0.61600
N2109       N  0.95985806  0.11664546  0.68005450    -0.06300
N2110       N  0.96430571  0.11620411  0.70221613    -0.58800
Mn2111     Mn  0.97612924  0.12795581  0.63123509     1.20200
Mn2112     Mn  0.93300602  0.09837439  0.66211078     1.10100
Cl2113     Cl  0.93228207  0.12899793  0.63173382    -0.86700
C2114       C  0.98393710  0.12808599  0.70390987     0.95600
C2115       C  0.98076746  0.05485091  0.62830505     0.95400
N2116       N  0.58488906  0.98238516  0.13026493    -0.06900
N2117       N  0.57064253  0.99580259  0.11889577    -0.59000
N2118       N  0.60869472  0.96939900  0.18069537    -0.06600
N2119       N  0.60780755  0.97446800  0.20269969    -0.61100
N2120       N  0.62004860  0.98499547  0.16922360    -0.06200
N2121       N  0.62740893  0.00107765  0.18314470    -0.59000
N2122       N  0.57355672  0.96679905  0.14182451    -0.05800
N2123       N  0.55136450  0.96925474  0.13853727    -0.61500
C2124       C  0.54970850  0.98742475  0.12418027     0.95300
C2125       C  0.61970684  0.99411747  0.20386319     0.95100
N2126       N  0.62162569  0.89921709  0.17503990    -0.07100
N2127       N  0.62977576  0.88650828  0.19227966    -0.59600
N2128       N  0.57401884  0.91434013  0.14694438    -0.05200
N2129       N  0.55165766  0.91263966  0.14752805    -0.60800
N2130       N  0.58380983  0.89695322  0.13619938    -0.07100
N2131       N  0.56726971  0.88296768  0.12891191    -0.59900
N2132       N  0.60983881  0.91654705  0.18370378    -0.04800
N2133       N  0.60973905  0.91603198  0.20624257    -0.60900
Mn2134     Mn  0.59140262  0.94174413  0.16349589     1.18400
C2135       C  0.62214319  0.89735186  0.21178491     0.97400
C2136       C  0.54724465  0.89320584  0.13631964     0.98000
N2137       N  0.65975800  0.98338118  0.13397272    -0.07100
N2138       N  0.67361060  0.99768169  0.14447950    -0.63400
N2139       N  0.63640449  0.96552287  0.08475031    -0.05900
N2140       N  0.63627163  0.96797083  0.06226622    -0.64100
N2141       N  0.62449510  0.98184808  0.09467272    -0.06600
N2142       N  0.61588144  0.99586532  0.07915280    -0.63700
N2143       N  0.67155498  0.96703288  0.12388532    -0.05500
N2144       N  0.69364457  0.96978699  0.12725228    -0.64400
Mn2145     Mn  0.62228792  0.98391302  0.13198387     1.10700
C2146       C  0.69471791  0.98884911  0.14039067     0.98600
C2147       C  0.62340841  0.98697030  0.05899485     0.98700
N2148       N  0.62580219  0.89640906  0.09629626    -0.06600
N2149       N  0.61794794  0.88284184  0.07964405    -0.62000
N2150       N  0.67274508  0.91467428  0.12393032    -0.06000
N2151       N  0.69516174  0.91385340  0.12440513    -0.58700
N2152       N  0.66339285  0.89795604  0.13587513    -0.07300
N2153       N  0.68028146  0.88538464  0.14512061    -0.61600
N2154       N  0.63758357  0.91310557  0.08673156    -0.06300
N2155       N  0.63810617  0.91136413  0.06432050    -0.58800
Mn2156     Mn  0.62364316  0.89585137  0.13583052     1.20200
Mn2157     Mn  0.65469391  0.94002796  0.10468370     1.10100
Cl2158     Cl  0.62294474  0.93990587  0.13401439    -0.86700
C2159       C  0.62595309  0.89257475  0.05968024     0.95600
C2160       C  0.70005302  0.89574411  0.13760037     0.95400
C2161       C  0.02926570  0.60304770  0.01775338    -0.06600
C2162       C  0.03212104  0.62433026  0.00702018    -0.00600
C2163       C  0.01573634  0.64206856  0.01045427    -0.09200
C2164       C  0.99795365  0.63824251  0.02616371    -0.06600
C2165       C  0.99644226  0.61767134  0.03857451    -0.00600
C2166       C  0.01115587  0.59917626  0.03298372    -0.09100
C2167       C  0.00896037  0.57550841  0.04319931     0.61300
H2168       H  0.04162056  0.58941902  0.01456586     0.12000
H2169       H  0.98620460  0.65210308  0.03026913     0.12000
C2170       C  0.01787339  0.66551960  0.99921772     0.61500
F2171       F  0.01166363  0.55911611  0.02619426    -0.23700
F2172       F  0.98772374  0.57219360  0.05316621    -0.21000
F2173       F  0.02596800  0.57253893  0.05937976    -0.20700
F2174       F  0.01588504  0.66338585  0.97566689    -0.20700
F2175       F  0.03882313  0.67501821  0.00454242    -0.21000
F2176       F  0.00100149  0.68062230  0.00660551    -0.23700
C2177       C  0.99469548  0.01904358  0.64581724    -0.06600
C2178       C  0.99390371  0.03329088  0.62643172    -0.00600
C2179       C  0.00778310  0.02815550  0.60719970    -0.09200
C2180       C  0.02510673  0.01158545  0.60956159    -0.06600
C2181       C  0.02788716  0.99938157  0.63012373    -0.00600
C2182       C  0.01147298  0.00185735  0.64801663    -0.09100
C2183       C  0.01241313  0.98775951  0.66999326     0.61300
H2184       H  0.98324924  0.02262772  0.65998316     0.12000
H2185       H  0.03716340  0.00879893  0.59574483     0.12000
C2186       C  0.00449278  0.04018258  0.58441840     0.61500
F2187       F  0.99479371  0.99335799  0.68496604    -0.23700
F2188       F  0.03285623  0.99159078  0.68122202    -0.21000
F2189       F  0.01044607  0.96469763  0.66481034    -0.20700
F2190       F  0.01375704  0.06189419  0.58541176    -0.20700
F2191       F  0.98137961  0.04174003  0.57944708    -0.21000
F2192       F  0.01504361  0.02826888  0.56670071    -0.23700
C2193       C  0.63274631  0.01462013  0.00078214    -0.06600
C2194       C  0.61403187  0.02982146  0.00073574    -0.00600
C2195       C  0.59601856  0.02647445  0.01657103    -0.09200
C2196       C  0.59937926  0.01131759  0.03482109    -0.06600
C2197       C  0.61943296  0.99823542  0.03670199    -0.00600
C2198       C  0.63575808  0.99851954  0.01854951    -0.09100
C2199       C  0.65691378  0.98322605  0.01846351     0.61300
H2200       H  0.64600875  0.01675473  0.98794251     0.12000
H2201       H  0.58649346  0.01029465  0.04825041     0.12000
C2202       C  0.57390496  0.03988732  0.01570975     0.61500
F2203       F  0.67016629  0.98647654  0.99898562    -0.23700
F2204       F  0.65044017  0.96044483  0.01889755    -0.21000
F2205       F  0.67033415  0.98798555  0.03737072    -0.20700
F2206       F  0.56881498  0.04637341  0.99344489    -0.20700
F2207       F  0.57581613  0.05908656  0.02949361    -0.21000
F2208       F  0.55599878  0.02657517  0.02360890    -0.23700
C2209       C  0.35617655  0.61544462  0.50465102    -0.06600
C2210       C  0.37279020  0.62246889  0.48832618    -0.00600
C2211       C  0.39377011  0.63098192  0.49647164    -0.09200
C2212       C  0.39723473  0.63220740  0.52038745    -0.06600
C2213       C  0.38088615  0.62474272  0.53683902    -0.00600
C2214       C  0.35989770  0.61605684  0.52866588    -0.09100
C2215       C  0.34167618  0.60714140  0.54494225     0.61300
H2216       H  0.34010472  0.60871791  0.49831580     0.12000
H2217       H  0.41347805  0.63878811  0.52634113     0.12000
C2218       C  0.41287711  0.63773317  0.48014930     0.61500
F2219       F  0.33426605  0.62464502  0.55921942    -0.23700
F2220       F  0.35056338  0.58937496  0.55799880    -0.21000
F2221       F  0.32285279  0.59883181  0.53330404    -0.20700
F2222       F  0.40570160  0.65580702  0.46650671    -0.20700
F2223       F  0.41876019  0.61921073  0.46646395    -0.21000
F2224       F  0.43235312  0.64456068  0.49169978    -0.23700
C2225       C  0.49987695  0.52743579  0.61790690    -0.06600
C2226       C  0.49214010  0.53275032  0.64005308    -0.00600
C2227       C  0.49792467  0.51828470  0.65875937    -0.09200
C2228       C  0.51420496  0.50089324  0.65500305    -0.06600
C2229       C  0.52410837  0.49752274  0.63326817    -0.00600
C2230       C  0.51513427  0.50924206  0.61407638    -0.09100
C2231       C  0.52056104  0.50294651  0.58947161     0.61300
H2232       H  0.49421079  0.53781374  0.60349910     0.12000
H2233       H  0.52065667  0.49106908  0.66940294     0.12000
C2234       C  0.48838145  0.52208461  0.68278767     0.61500
F2235       F  0.50034755  0.49838877  0.57809665    -0.23700
F2236       F  0.53444347  0.48371780  0.58768723    -0.21000
F2237       F  0.53110615  0.52123601  0.57886708    -0.20700
F2238       F  0.46481543  0.52018558  0.68248497    -0.20700
F2239       F  0.49431721  0.54365076  0.69055598    -0.21000
F2240       F  0.49669797  0.50604993  0.69828339    -0.23700
C2241       C  0.49080501  0.36766753  0.61339383    -0.06600
C2242       C  0.47457025  0.38059609  0.62636184    -0.00600
C2243       C  0.48305268  0.39541934  0.64350346    -0.09200
C2244       C  0.50703006  0.39696747  0.64662154    -0.06600
C2245       C  0.52331339  0.38514883  0.63268959    -0.00600
C2246       C  0.51483453  0.36992301  0.61593054    -0.09100
C2247       C  0.53087859  0.35672424  0.60019377     0.61300
H2248       H  0.48455712  0.35601421  0.60049697     0.12000
H2249       H  0.51322272  0.40827390  0.65985779     0.12000
C2250       C  0.46714745  0.41030596  0.65789070     0.61500
F2251       F  0.51915637  0.34310603  0.58478628    -0.23700
F2252       F  0.54496461  0.34263217  0.61311001    -0.21000
F2253       F  0.54402186  0.37194766  0.58770340    -0.20700
F2254       F  0.45402759  0.42406943  0.64367141    -0.20700
F2255       F  0.47902095  0.42454293  0.67261440    -0.21000
F2256       F  0.45303707  0.39656189  0.67103891    -0.23700
C2257       C  0.38877525  0.48151367  0.50923836    -0.06600
C2258       C  0.36720094  0.47486223  0.51703110    -0.00600
C2259       C  0.34757488  0.48809921  0.51152841    -0.09200
C2260       C  0.34999278  0.50588284  0.49553077    -0.06600
C2261       C  0.37133037  0.51084174  0.48572210    -0.00600
C2262       C  0.39126938  0.50006105  0.49425680    -0.09100
C2263       C  0.41531439  0.50779533  0.48886290     0.61300
H2264       H  0.40381783  0.47196470  0.51474125     0.12000
H2265       H  0.33499166  0.51490039  0.48933972     0.12000
C2266       C  0.32410776  0.48278454  0.52143747     0.61500
F2267       F  0.42599889  0.51374768  0.50915469    -0.23700
F2268       F  0.41589752  0.52661771  0.47442347    -0.21000
F2269       F  0.42732445  0.48989514  0.47890790    -0.20700
F2270       F  0.32449855  0.48561864  0.54501486    -0.20700
F2271       F  0.31811699  0.46045450  0.51628951    -0.21000
F2272       F  0.30732765  0.49721764  0.51274524    -0.23700
C2273       C  0.35769993  0.49451079  0.62634637    -0.06600
C2274       C  0.37620215  0.47887592  0.62852657    -0.00600
C2275       C  0.39833642  0.48773836  0.63200049    -0.09200
C2276       C  0.40101774  0.51174444  0.63389379    -0.06600
C2277       C  0.38248745  0.52744357  0.63206676    -0.00600
C2278       C  0.36041462  0.51859172  0.62789376    -0.09100
C2279       C  0.33979994  0.53430970  0.62531786     0.61300
H2280       H  0.34089165  0.48761613  0.62303563     0.12000
H2281       H  0.41796832  0.51849203  0.63679106     0.12000
C2282       C  0.41913314  0.47204351  0.63282205     0.61500
F2283       F  0.31985800  0.52214515  0.62176460    -0.23700
F2284       F  0.34297688  0.54867089  0.60667139    -0.21000
F2285       F  0.33697081  0.54730846  0.64499688    -0.20700
F2286       F  0.42077659  0.45967911  0.61259537    -0.20700
F2287       F  0.41710776  0.45707044  0.65112718    -0.21000
F2288       F  0.43923856  0.48416420  0.63551185    -0.23700
C2289       C  0.64438787  0.53447401  0.74696481    -0.06600
C2290       C  0.62495909  0.53601642  0.76107173    -0.00600
C2291       C  0.60708386  0.51985440  0.75881604    -0.09200
C2292       C  0.60895704  0.50338687  0.74135659    -0.06600
C2293       C  0.62735234  0.50346429  0.72578423    -0.00600
C2294       C  0.64604741  0.51825224  0.72938498    -0.09100
C2295       C  0.66733748  0.51855549  0.71442272     0.61300
H2296       H  0.65797565  0.54681391  0.74901373     0.12000
H2297       H  0.59499960  0.49169946  0.73842461     0.12000
C2298       C  0.58520278  0.52116079  0.77303607     0.61500
F2299       F  0.68647352  0.52190701  0.72791305    -0.23700
F2300       F  0.66561047  0.53642557  0.69886801    -0.21000
F2301       F  0.67059063  0.49817353  0.70268920    -0.20700
F2302       F  0.57466169  0.54225028  0.76980352    -0.20700
F2303       F  0.59020995  0.51817479  0.79604551    -0.21000
F2304       F  0.56971409  0.50439187  0.76690664    -0.23700
C2305       C  0.51731631  0.65340333  0.76046557    -0.06600
C2306       C  0.52646372  0.63191341  0.76628215    -0.00600
C2307       C  0.51665717  0.61161589  0.75749932    -0.09200
C2308       C  0.49835137  0.61368234  0.74225359    -0.06600
C2309       C  0.49047729  0.63517410  0.73485581    -0.00600
C2310       C  0.49937655  0.65545760  0.74463385    -0.09100
C2311       C  0.49080439  0.67944100  0.73913478     0.61300
H2312       H  0.52491728  0.66873471  0.76756627     0.12000
H2313       H  0.49121596  0.59843629  0.73452116     0.12000
C2314       C  0.52645782  0.58795239  0.76278490     0.61500
F2315       F  0.48168678  0.68917152  0.75883061    -0.23700
F2316       F  0.47411961  0.67981266  0.72238911    -0.21000
F2317       F  0.50894120  0.69270194  0.73180227    -0.20700
F2318       F  0.52336671  0.58300586  0.78580384    -0.20700
F2319       F  0.54956128  0.58729628  0.75754621    -0.21000
F2320       F  0.51593387  0.57092345  0.75014389    -0.23700
C2321       C  0.24153069  0.49043088  0.39411584    -0.06600
C2322       C  0.24329558  0.47389684  0.37675220    -0.00600
C2323       C  0.25994176  0.47631980  0.35930829    -0.09200
C2324       C  0.27704096  0.49269385  0.36225329    -0.06600
C2325       C  0.27721929  0.50726707  0.38140032    -0.00600
C2326       C  0.25844324  0.50712743  0.39704834    -0.09100
C2327       C  0.25703065  0.52286578  0.41785858     0.61300
H2328       H  0.22803982  0.48870379  0.40687159     0.12000
H2329       H  0.29105053  0.49344247  0.34990051     0.12000
C2330       C  0.26104364  0.46085492  0.33841353     0.61500
F2331       F  0.23768396  0.51882965  0.43102678    -0.23700
F2332       F  0.25615525  0.54550656  0.41076599    -0.21000
F2333       F  0.27586993  0.51937867  0.43178509    -0.20700
F2334       F  0.23975297  0.45208600  0.33312156    -0.20700
F2335       F  0.27618089  0.44298114  0.34248598    -0.21000
F2336       F  0.26853062  0.47311217  0.31950830    -0.23700
C2337       C  0.25271355  0.35652159  0.48818703    -0.06600
C2338       C  0.24364307  0.37821058  0.48294062    -0.00600
C2339       C  0.24764704  0.39707362  0.49777103    -0.09200
C2340       C  0.26264410  0.39385797  0.51620342    -0.06600
C2341       C  0.27395443  0.37289572  0.51953912    -0.00600
C2342       C  0.26769066  0.35348436  0.50666603    -0.09100
C2343       C  0.27797106  0.33008400  0.51141423     0.61300
H2344       H  0.24903592  0.34220682  0.47693117     0.12000
H2345       H  0.26741833  0.40837126  0.52675450     0.12000
C2346       C  0.23790785  0.42090523  0.49323354     0.61500
F2347       F  0.26496068  0.31282172  0.50181534    -0.23700
F2348       F  0.27909857  0.32623331  0.53485161    -0.21000
F2349       F  0.29971508  0.32905802  0.50215542    -0.20700
F2350       F  0.21430913  0.42039647  0.49464880    -0.20700
F2351       F  0.24446181  0.42831751  0.47162900    -0.21000
F2352       F  0.24555100  0.43683733  0.50905315    -0.23700
C2353       C  0.52379152  0.74421062  0.65640661    -0.06600
C2354       C  0.52773220  0.75450331  0.63502103    -0.00600
C2355       C  0.51258091  0.75045460  0.61648189    -0.09200
C2356       C  0.49532820  0.73414935  0.61958323    -0.06600
C2357       C  0.49318637  0.72198096  0.64025021    -0.00600
C2358       C  0.50619215  0.72839261  0.65950847    -0.09100
C2359       C  0.50262274  0.71790206  0.68299833     0.61300
H2360       H  0.53516498  0.74794036  0.67058433     0.12000
H2361       H  0.48463778  0.72939270  0.60522154     0.12000
C2362       C  0.51554042  0.76166466  0.59306000     0.61500
F2363       F  0.50820942  0.73344774  0.70002130    -0.23700
F2364       F  0.51641454  0.69867160  0.68516249    -0.21000
F2365       F  0.47998358  0.71186496  0.68623114    -0.20700
F2366       F  0.53695656  0.75644111  0.58423475    -0.20700
F2367       F  0.51310323  0.78519168  0.59506283    -0.21000
F2368       F  0.49940463  0.75418902  0.57743531    -0.23700
C2369       C  0.59247809  0.74079008  0.73036405    -0.06600
C2370       C  0.61090443  0.75602948  0.72963264    -0.00600
C2371       C  0.62657191  0.75672008  0.74827575    -0.09200
C2372       C  0.62458924  0.74006192  0.76550562    -0.06600
C2373       C  0.60815265  0.72273655  0.76427702    -0.00600
C2374       C  0.59044498  0.72439132  0.74779418    -0.09100
C2375       C  0.56948456  0.70918184  0.74739600     0.61300
H2376       H  0.57993119  0.74111792  0.71667067     0.12000
H2377       H  0.63743410  0.73908417  0.77882329     0.12000
C2378       C  0.64642797  0.77345236  0.74941167     0.61500
F2379       F  0.55008965  0.72271037  0.74491420    -0.23700
F2380       F  0.56685064  0.69664236  0.76737630    -0.21000
F2381       F  0.57096790  0.69434732  0.72890909    -0.20700
F2382       F  0.63809833  0.79571172  0.74965036    -0.20700
F2383       F  0.66079963  0.77029405  0.73072615    -0.21000
F2384       F  0.65945378  0.77045365  0.76902804    -0.23700
C2385       C  0.24871285  0.26873464  0.37955574    -0.06600
C2386       C  0.25096597  0.28575186  0.39640851    -0.00600
C2387       C  0.26861174  0.28383540  0.41279936    -0.09200
C2388       C  0.28618131  0.26781201  0.40884584    -0.06600
C2389       C  0.28563965  0.25274718  0.38999446    -0.00600
C2390       C  0.26582424  0.25212811  0.37589751    -0.09100
C2391       C  0.26318583  0.23548467  0.35597263     0.61300
H2392       H  0.23443277  0.26975607  0.36786139     0.12000
H2393       H  0.30074357  0.26748048  0.42025179     0.12000
C2394       C  0.26971901  0.29882953  0.43403759     0.61500
F2395       F  0.24244906  0.23826037  0.34483176    -0.23700
F2396       F  0.26414369  0.21315750  0.36397885    -0.21000
F2397       F  0.28037106  0.23903144  0.33998472    -0.20700
F2398       F  0.24816458  0.30639237  0.44059782    -0.20700
F2399       F  0.28353311  0.31751524  0.42974224    -0.21000
F2400       F  0.27873447  0.28651869  0.45226784    -0.23700
C2401       C  0.35656488  0.26048486  0.48226432    -0.06600
C2402       C  0.37846787  0.25577430  0.47367485    -0.00600
C2403       C  0.39787240  0.26600124  0.48373530    -0.09200
C2404       C  0.39445039  0.28127944  0.50200415    -0.06600
C2405       C  0.37240359  0.28716787  0.50966941    -0.00600
C2406       C  0.35312273  0.27601702  0.50032676    -0.09100
C2407       C  0.32873923  0.27962622  0.50849217     0.61300
H2408       H  0.34193811  0.25230478  0.47444423     0.12000
H2409       H  0.40894495  0.29005573  0.50936398     0.12000
C2410       C  0.42183594  0.26227309  0.47414762     0.61500
F2411       F  0.31590394  0.28835134  0.49056508    -0.23700
F2412       F  0.32700471  0.29433563  0.52702622    -0.21000
F2413       F  0.31965069  0.25873122  0.51498196    -0.20700
F2414       F  0.42251993  0.26910394  0.45139620    -0.20700
F2415       F  0.42783556  0.23935094  0.47564908    -0.21000
F2416       F  0.43803105  0.27476977  0.48602432    -0.23700
C2417       C  0.36192854  0.13544932  0.26644761    -0.06600
C2418       C  0.37980679  0.13166637  0.28239849    -0.00600
C2419       C  0.40154795  0.12528421  0.27373758    -0.09200
C2420       C  0.40463367  0.12327548  0.24972410    -0.06600
C2421       C  0.38706649  0.12787004  0.23360689    -0.00600
C2422       C  0.36507872  0.13373395  0.24229233    -0.09100
C2423       C  0.34508090  0.13844244  0.22638017     0.61300
H2424       H  0.34534482  0.14063746  0.27316099     0.12000
H2425       H  0.42147461  0.11863105  0.24332841     0.12000
C2426       C  0.42179722  0.12182181  0.28960621     0.61500
F2427       F  0.32494544  0.14232766  0.23841912    -0.23700
F2428       F  0.34170170  0.11982780  0.21209521    -0.21000
F2429       F  0.34952377  0.15771724  0.21328307    -0.20700
F2430       F  0.41744084  0.10385657  0.30446636    -0.20700
F2431       F  0.42548665  0.14163040  0.30207622    -0.21000
F2432       F  0.44170315  0.11671499  0.27762500    -0.23700
C2433       C  0.52944925  0.01531856  0.09965962    -0.06600
C2434       C  0.52816330  0.99938573  0.11778349    -0.00600
C2435       C  0.50753695  0.99786817  0.13075484    -0.09200
C2436       C  0.49085792  0.01505128  0.12768122    -0.06600
C2437       C  0.49443961  0.03345273  0.11258077    -0.00600
C2438       C  0.51242746  0.03204148  0.09636591    -0.09100
C2439       C  0.51497017  0.04879518  0.07660003     0.61300
H2440       H  0.54446914  0.01555884  0.08878590     0.12000
H2441       H  0.47612444  0.01554985  0.13892139     0.12000
C2442       C  0.50355169  0.97973569  0.14910284     0.61500
F2443       F  0.52484901  0.03796668  0.05787299    -0.23700
F2444       F  0.52879657  0.06678357  0.08314354    -0.21000
F2445       F  0.49389687  0.05724167  0.06968689    -0.20700
F2446       F  0.51873457  0.98274270  0.16699443    -0.20700
F2447       F  0.50633603  0.95808911  0.13973354    -0.21000
F2448       F  0.48163802  0.98098635  0.15818353    -0.23700
C2449       C  0.49951121  0.10677540  0.02492709    -0.06600
C2450       C  0.49132706  0.12855417  0.03091047    -0.00600
C2451       C  0.49633967  0.14773629  0.01680441    -0.09200
C2452       C  0.51200863  0.14468091  0.99876578    -0.06600
C2453       C  0.52284547  0.12345781  0.99510720    -0.00600
C2454       C  0.51495236  0.10382030  0.00679465    -0.09100
C2455       C  0.52258382  0.07964951  0.00132593     0.61300
H2456       H  0.49464733  0.09204285  0.03522476     0.12000
H2457       H  0.51776994  0.15942130  0.98907459     0.12000
C2458       C  0.48718490  0.17167035  0.02195874     0.61500
F2459       F  0.53365767  0.07073274  0.02022898    -0.23700
F2460       F  0.53691706  0.07850489  0.98242408    -0.21000
F2461       F  0.50361750  0.06635510  0.99680045    -0.20700
F2462       F  0.49445232  0.17855705  0.04344869    -0.20700
F2463       F  0.46354280  0.17171185  0.02131811    -0.21000
F2464       F  0.49472191  0.18766379  0.00608435    -0.23700
C2465       C  0.37157297  0.64294603  0.25243819    -0.06600
C2466       C  0.36795767  0.62407745  0.23771228    -0.00600
C2467       C  0.36583602  0.60202705  0.24746295    -0.09200
C2468       C  0.36642114  0.59964921  0.27157176    -0.06600
C2469       C  0.36960622  0.61848685  0.28645503    -0.00600
C2470       C  0.37319990  0.64040375  0.27663275    -0.09100
C2471       C  0.37976731  0.66066821  0.29144844     0.61300
H2472       H  0.37289285  0.65977510  0.24480207     0.12000
H2473       H  0.36449749  0.58280733  0.27903446     0.12000
C2474       C  0.36261554  0.58114007  0.23236435     0.61500
F2475       F  0.38320825  0.68028667  0.27850309    -0.23700
F2476       F  0.39987904  0.65566914  0.30295318    -0.21000
F2477       F  0.36263523  0.66522477  0.30724513    -0.20700
F2478       F  0.38134159  0.57886480  0.21794763    -0.20700
F2479       F  0.34299998  0.58366869  0.21935011    -0.21000
F2480       F  0.36066191  0.56116514  0.24508771    -0.23700
C2481       C  0.25450845  0.62024515  0.02650654    -0.06600
C2482       C  0.25250722  0.63737042  0.04333262    -0.00600
C2483       C  0.23676089  0.65556287  0.04010056    -0.09200
C2484       C  0.22058702  0.65359024  0.02259631    -0.06600
C2485       C  0.22022021  0.63454243  0.00797100    -0.00600
C2486       C  0.23860675  0.61847116  0.00858466    -0.09100
C2487       C  0.24090342  0.59880018  0.99159195     0.61300
H2488       H  0.26754015  0.60703111  0.02855442     0.12000
H2489       H  0.20715964  0.66649326  0.02107804     0.12000
C2490       C  0.23616972  0.67655322  0.05538307     0.61500
F2491       F  0.26074201  0.58615174  0.99505502    -0.23700
F2492       F  0.24168205  0.60738863  0.96944386    -0.21000
F2493       F  0.22259280  0.58406241  0.99390490    -0.20700
F2494       F  0.25814309  0.68312281  0.06103835    -0.20700
F2495       F  0.22385566  0.67191535  0.07514020    -0.21000
F2496       F  0.22586365  0.69480488  0.04423524    -0.23700
C2497       C  0.36345479  0.24402888  0.64779272    -0.06600
C2498       C  0.36663095  0.22879540  0.62913557    -0.00600
C2499       C  0.37269723  0.23795437  0.60756891    -0.09200
C2500       C  0.37486111  0.26193363  0.60530816    -0.06600
C2501       C  0.37139183  0.27736970  0.62383011    -0.00600
C2502       C  0.36600519  0.26809428  0.64565849    -0.09100
C2503       C  0.36347804  0.28323481  0.66668658     0.61300
H2504       H  0.35849563  0.23683545  0.66420505     0.12000
H2505       H  0.37897833  0.26882042  0.58853719     0.12000
C2506       C  0.37560588  0.22262830  0.58674243     0.61500
F2507       F  0.35972308  0.27051518  0.68642870    -0.23700
F2508       F  0.34514277  0.29808559  0.66392519    -0.21000
F2509       F  0.38328679  0.29569299  0.66976563    -0.20700
F2510       F  0.39251681  0.20646732  0.59089752    -0.20700
F2511       F  0.38179437  0.23486574  0.56731665    -0.21000
F2512       F  0.35518416  0.21170053  0.58231754    -0.23700
C2513       C  0.37555658  0.15558481  0.50068960    -0.06600
C2514       C  0.37037090  0.13828631  0.48440519    -0.00600
C2515       C  0.36297719  0.11675384  0.49282187    -0.09200
C2516       C  0.36187355  0.11326241  0.51688912    -0.06600
C2517       C  0.36679598  0.13069466  0.53299159    -0.00600
C2518       C  0.37342214  0.15238252  0.52463902    -0.09100
C2519       C  0.37667322  0.17246543  0.54081640     0.61300
H2520       H  0.38083815  0.17230367  0.49450075     0.12000
H2521       H  0.35613187  0.09682208  0.52344417     0.12000
C2522       C  0.35559936  0.09778426  0.47673446     0.61500
F2523       F  0.38154027  0.19258603  0.52918400    -0.23700
F2524       F  0.39456111  0.16786132  0.55563321    -0.21000
F2525       F  0.35679266  0.17598070  0.55330710    -0.20700
F2526       F  0.37337278  0.09197565  0.46208320    -0.20700
F2527       F  0.33696369  0.10518936  0.46408690    -0.21000
F2528       F  0.34925056  0.07818248  0.48854053    -0.23700
C2529       C  0.22524280  0.00647622  0.61920397    -0.06600
C2530       C  0.21452130  0.00213753  0.64026701    -0.00600
C2531       C  0.22066268  0.01474443  0.66001307    -0.09200
C2532       C  0.23662502  0.03253341  0.65761094    -0.06600
C2533       C  0.24595038  0.03806079  0.63607836    -0.00600
C2534       C  0.24027927  0.02486111  0.61648525    -0.09100
C2535       C  0.24812958  0.03143416  0.59242387     0.61300
H2536       H  0.22014751  0.99660684  0.60435436     0.12000
H2537       H  0.24106555  0.04296745  0.67230339     0.12000
C2538       C  0.20968230  0.01009489  0.68320004     0.61500
F2539       F  0.23798419  0.01808159  0.57570031    -0.23700
F2540       F  0.27154644  0.02861473  0.59044591    -0.21000
F2541       F  0.24230078  0.05407330  0.58803669    -0.20700
F2542       F  0.20874333  0.98671644  0.68725472    -0.20700
F2543       F  0.18775959  0.01914552  0.68358846    -0.21000
F2544       F  0.22196575  0.01991849  0.70085562    -0.23700
C2545       C  0.47740975  0.25709796  0.40408265    -0.06600
C2546       C  0.47221547  0.24885604  0.38213612    -0.00600
C2547       C  0.48388282  0.25738305  0.36268771    -0.09200
C2548       C  0.49813943  0.27635499  0.36553436    -0.06600
C2549       C  0.50171593  0.28592169  0.38724686    -0.00600
C2550       C  0.49228819  0.27553883  0.40709625    -0.09100
C2551       C  0.49664340  0.28469843  0.43113327     0.61300
H2552       H  0.46844854  0.24996716  0.41877997     0.12000
H2553       H  0.50638073  0.28393828  0.35062082     0.12000
C2554       C  0.48261962  0.24668109  0.33902598     0.61500
F2555       F  0.48559626  0.27186612  0.44779894    -0.23700
F2556       F  0.48886198  0.30710850  0.43275671    -0.21000
F2557       F  0.51979166  0.28391808  0.43586752    -0.20700
F2558       F  0.47530712  0.26291739  0.32331426    -0.20700
F2559       F  0.46808086  0.22810222  0.33812462    -0.21000
F2560       F  0.50426812  0.23916694  0.33276764    -0.23700
C2561       C  0.47804699  0.40789886  0.47380240    -0.06600
C2562       C  0.49661409  0.39282291  0.47721442    -0.00600
C2563       C  0.49886878  0.38163192  0.49877672    -0.09200
C2564       C  0.48029882  0.38267657  0.51417270    -0.06600
C2565       C  0.45998310  0.39455154  0.50878754    -0.00600
C2566       C  0.45967959  0.40919516  0.48932037    -0.09100
C2567       C  0.44016583  0.42580150  0.48429284     0.61300
H2568       H  0.47722188  0.41768338  0.45805718     0.12000
H2569       H  0.48095738  0.37268525  0.52979193     0.12000
C2570       C  0.51975613  0.36745349  0.50532159     0.61500
F2571       F  0.44631054  0.44179685  0.46785694    -0.23700
F2572       F  0.43424338  0.43765964  0.50402833    -0.21000
F2573       F  0.42142352  0.41406819  0.47609125    -0.20700
F2574       F  0.53945959  0.37991442  0.50148366    -0.20700
F2575       F  0.52035950  0.34747052  0.49254944    -0.21000
F2576       F  0.51945577  0.36145075  0.52835694    -0.23700
C2577       C  0.64052483  0.39430432  0.51792908    -0.06600
C2578       C  0.62565528  0.38373782  0.53406536    -0.00600
C2579       C  0.60798908  0.36973313  0.52570224    -0.09200
C2580       C  0.60520285  0.36783546  0.50175661    -0.06600
C2581       C  0.61833920  0.38054630  0.48564924    -0.00600
C2582       C  0.63681635  0.39358355  0.49395291    -0.09100
C2583       C  0.65179661  0.40762501  0.47799597     0.61300
H2584       H  0.65451218  0.40447645  0.52433805     0.12000
H2585       H  0.59161478  0.35705097  0.49556442     0.12000
C2586       C  0.59119980  0.35798653  0.54170733     0.61500
F2587       F  0.66873764  0.41915982  0.48978445    -0.23700
F2588       F  0.63852933  0.42377861  0.46669100    -0.21000
F2589       F  0.66234315  0.39339919  0.46212425    -0.20700
F2590       F  0.57963960  0.37432347  0.55454758    -0.20700
F2591       F  0.60283163  0.34316775  0.55616336    -0.21000
F2592       F  0.57508572  0.34537235  0.52986078    -0.23700
C2593       C  0.48596990  0.47401836  0.40962347    -0.06600
C2594       C  0.49997514  0.47412884  0.38998014    -0.00600
C2595       C  0.49907818  0.49316944  0.37476824    -0.09200
C2596       C  0.48180604  0.50971336  0.37820688    -0.06600
C2597       C  0.46584990  0.50768644  0.39617042    -0.00600
C2598       C  0.46939066  0.49101325  0.41336894    -0.09100
C2599       C  0.45537475  0.49006254  0.43520913     0.61300
H2600       H  0.48742795  0.46001497  0.42182308     0.12000
H2601       H  0.47948767  0.52327736  0.36568588     0.12000
C2602       C  0.51492869  0.49541422  0.35416467     0.61500
F2603       F  0.46901898  0.48320726  0.45338401    -0.23700
F2604       F  0.43783041  0.47450447  0.43253354    -0.21000
F2605       F  0.44635412  0.51136306  0.44071606    -0.20700
F2606       F  0.51161939  0.47728264  0.33925950    -0.20700
F2607       F  0.53742509  0.49560513  0.36145328    -0.21000
F2608       F  0.51100980  0.51554052  0.34209208    -0.23700
C2609       C  0.50286762  0.64298272  0.40842021    -0.06600
C2610       C  0.51925195  0.63006730  0.39567095    -0.00600
C2611       C  0.51097152  0.61448981  0.37907061    -0.09200
C2612       C  0.48708041  0.61175084  0.37678519    -0.06600
C2613       C  0.47072919  0.62358054  0.39049005    -0.00600
C2614       C  0.47889522  0.64008732  0.40618615    -0.09100
C2615       C  0.46258366  0.65416817  0.42088408     0.61300
H2616       H  0.50902754  0.65538427  0.42085603     0.12000
H2617       H  0.48096149  0.59956736  0.36411839     0.12000
C2618       C  0.52702534  0.60034766  0.36410548     0.61500
F2619       F  0.47401735  0.66960194  0.43470906    -0.23700
F2620       F  0.45008674  0.63978176  0.43494749    -0.21000
F2621       F  0.44787803  0.66654076  0.40694669    -0.20700
F2622       F  0.54084705  0.58668796  0.37775301    -0.20700
F2623       F  0.54039589  0.61479348  0.35093250    -0.21000
F2624       F  0.51529663  0.58607898  0.34929102    -0.23700
C2625       C  0.53014336  0.60346935  0.52661075    -0.06600
C2626       C  0.53088526  0.62275115  0.51211104    -0.00600
C2627       C  0.51290959  0.63927047  0.51326320    -0.09200
C2628       C  0.49721614  0.63781191  0.53152821    -0.06600
C2629       C  0.49820828  0.61991139  0.54765173    -0.00600
C2630       C  0.51345654  0.60135615  0.54390168    -0.09100
C2631       C  0.51170558  0.57915407  0.55738467     0.61300
H2632       H  0.54308224  0.59027042  0.52471533     0.12000
H2633       H  0.48467915  0.65129207  0.53392050     0.12000
C2634       C  0.51032890  0.65868999  0.49597096     0.61500
F2635       F  0.52355193  0.56152393  0.54660080    -0.23700
F2636       F  0.48902401  0.57267650  0.55908925    -0.21000
F2637       F  0.52064432  0.58193475  0.57912613    -0.20700
F2638       F  0.50879954  0.64967989  0.47405038    -0.20700
F2639       F  0.52881118  0.67331493  0.49728614    -0.21000
F2640       F  0.49070234  0.67157812  0.49984167    -0.23700
C2641       C  0.59674192  0.52835099  0.51420104    -0.06600
C2642       C  0.61750426  0.53089766  0.50246228    -0.00600
C2643       C  0.63549124  0.51480275  0.50576763    -0.09200
C2644       C  0.63261563  0.49793691  0.52264581    -0.06600
C2645       C  0.61311933  0.49763669  0.53676647    -0.00600
C2646       C  0.59418633  0.51186837  0.53146838    -0.09100
C2647       C  0.57182686  0.51062568  0.54457859     0.61300
H2648       H  0.58307101  0.54058903  0.51098032     0.12000
H2649       H  0.64665616  0.48634095  0.52647862     0.12000
C2650       C  0.65833527  0.51649950  0.49330172     0.61500
F2651       F  0.55439473  0.52197578  0.53307749    -0.23700
F2652       F  0.57435212  0.52076368  0.56584037    -0.21000
F2653       F  0.56542650  0.48797615  0.54727648    -0.20700
F2654       F  0.66829487  0.53747102  0.49784040    -0.20700
F2655       F  0.65505104  0.51417268  0.46992065    -0.21000
F2656       F  0.67355941  0.49951810  0.50014528    -0.23700
C2657       C  0.60222303  0.51762449  0.40972427    -0.06600
C2658       C  0.60987311  0.53097818  0.39106393    -0.00600
C2659       C  0.61683510  0.51969913  0.37071019    -0.09200
C2660       C  0.61661301  0.49539739  0.37002618    -0.06600
C2661       C  0.60982938  0.48202898  0.38905829    -0.00600
C2662       C  0.60163904  0.49343288  0.40894222    -0.09100
C2663       C  0.59166390  0.48013711  0.42898286     0.61300
H2664       H  0.59714277  0.52644393  0.42532874     0.12000
H2665       H  0.62144211  0.48655828  0.35436881     0.12000
C2666       C  0.62478751  0.53333030  0.35005049     0.61500
F2667       F  0.58564209  0.49439760  0.44708274    -0.23700
F2668       F  0.60756027  0.46436627  0.43689033    -0.21000
F2669       F  0.57224536  0.46871125  0.42194732    -0.20700
F2670       F  0.64425277  0.54547394  0.35555565    -0.20700
F2671       F  0.60773433  0.54853219  0.34351181    -0.21000
F2672       F  0.62980845  0.51928350  0.33151521    -0.23700
C2673       C  0.62155235  0.73698480  0.50556409    -0.06600
C2674       C  0.63687242  0.71860863  0.50870413    -0.00600
C2675       C  0.65351937  0.71988514  0.52628735    -0.09200
C2676       C  0.65154964  0.73761577  0.54242133    -0.06600
C2677       C  0.63372691  0.75383339  0.54139251    -0.00600
C2678       C  0.61928994  0.75453739  0.52183096    -0.09100
C2679       C  0.60038721  0.77233893  0.51867822     0.61300
H2680       H  0.60974958  0.73644308  0.49128698     0.12000
H2681       H  0.66313687  0.73802770  0.55689783     0.12000
C2682       C  0.67321955  0.70289554  0.52832293     0.61500
F2683       F  0.58901175  0.76969232  0.49803341    -0.23700
F2684       F  0.60961625  0.79412473  0.51881501    -0.21000
F2685       F  0.58435876  0.77028656  0.53608907    -0.20700
F2686       F  0.68323741  0.69967045  0.50700731    -0.20700
F2687       F  0.66557553  0.68215687  0.53679807    -0.21000
F2688       F  0.68990612  0.71082480  0.54309659    -0.23700
C2689       C  0.39330041  0.24576124  0.12230777    -0.06600
C2690       C  0.38072381  0.22934108  0.13511961    -0.00600
C2691       C  0.36319269  0.23746615  0.14982222    -0.09200
C2692       C  0.36025317  0.26148894  0.15238953    -0.06600
C2693       C  0.37440473  0.27784142  0.14119980    -0.00600
C2694       C  0.39085044  0.26966486  0.12530891    -0.09100
C2695       C  0.40645957  0.28575746  0.11212991     0.61300
H2696       H  0.40601537  0.23976275  0.11017263     0.12000
H2697       H  0.34710726  0.26764290  0.16402179     0.12000
C2698       C  0.34805515  0.22111305  0.16317144     0.61500
F2699       F  0.39347833  0.30043022  0.09870635    -0.23700
F2700       F  0.42140083  0.27403226  0.09774229    -0.21000
F2701       F  0.41944633  0.29831470  0.12736377    -0.20700
F2702       F  0.36125340  0.20820769  0.17810308    -0.20700
F2703       F  0.33687661  0.20670520  0.14811791    -0.21000
F2704       F  0.33160427  0.23263485  0.17597350    -0.23700
C2705       C  0.36061833  0.51232177  0.12365296    -0.06600
C2706       C  0.36657422  0.52827147  0.14090469    -0.00600
C2707       C  0.37533999  0.51972360  0.16181408    -0.09200
C2708       C  0.37827947  0.49577218  0.16443510    -0.06600
C2709       C  0.37222609  0.47966351  0.14723751    -0.00600
C2710       C  0.36282226  0.48826250  0.12653170    -0.09100
C2711       C  0.35475961  0.47237218  0.10766418     0.61300
H2712       H  0.35352951  0.51894898  0.10779958     0.12000
H2713       H  0.38516474  0.48948664  0.18049852     0.12000
C2714       C  0.38064890  0.53564766  0.18165128     0.61500
F2715       F  0.34555138  0.48435596  0.08930412    -0.23700
F2716       F  0.33795206  0.45805991  0.11615861    -0.21000
F2717       F  0.37296933  0.45940005  0.09958531    -0.20700
F2718       F  0.36162792  0.54898826  0.18666708    -0.20700
F2719       F  0.39874510  0.54964508  0.17573740    -0.21000
F2720       F  0.38652026  0.52372909  0.20138370    -0.23700
C2721       C  0.35379109  0.47307175  0.27405219    -0.06600
C2722       C  0.37422399  0.46984525  0.26179128    -0.00600
C2723       C  0.39360656  0.48343873  0.26674597    -0.09200
C2724       C  0.39187512  0.49942398  0.28466428    -0.06600
C2725       C  0.37197980  0.50127001  0.29811106    -0.00600
C2726       C  0.35235356  0.48847229  0.29242326    -0.09100
C2727       C  0.33026116  0.49024728  0.30611024     0.61300
H2728       H  0.33929251  0.46231847  0.27002772     0.12000
H2729       H  0.40661856  0.50955811  0.28931518     0.12000
C2730       C  0.41643728  0.48001829  0.25449740     0.61500
F2731       F  0.31211733  0.48080783  0.29430843    -0.23700
F2732       F  0.32491430  0.51299672  0.31044871    -0.21000
F2733       F  0.33264570  0.47858396  0.32666786    -0.20700
F2734       F  0.41407319  0.48506740  0.23140677    -0.20700
F2735       F  0.42384549  0.45754412  0.25703751    -0.21000
F2736       F  0.43328200  0.49408322  0.26323379    -0.23700
C2737       C  0.26561876  0.37083331  0.25641601    -0.06600
C2738       C  0.28096116  0.38918425  0.25652576    -0.00600
C2739       C  0.27817330  0.40702325  0.27271005    -0.09200
C2740       C  0.26254490  0.40396233  0.29072513    -0.06600
C2741       C  0.24931614  0.38402716  0.29245335    -0.00600
C2742       C  0.25009872  0.36746813  0.27450309    -0.09100
C2743       C  0.23673909  0.34512632  0.27530760     0.61300
H2744       H  0.26765623  0.35773143  0.24346138     0.12000
H2745       H  0.26137650  0.41678367  0.30408059     0.12000
C2746       C  0.29243383  0.42862553  0.27233539     0.61500
F2747       F  0.24128022  0.33127935  0.25649208    -0.23700
F2748       F  0.21352570  0.34965043  0.27545912    -0.21000
F2749       F  0.24260618  0.33286989  0.29479884    -0.20700
F2750       F  0.30036008  0.43345573  0.25044555    -0.20700
F2751       F  0.31081249  0.42599822  0.28701212    -0.21000
F2752       F  0.27938583  0.44719695  0.27950302    -0.23700
C2753       C  0.39899177  0.28002408  0.26725120    -0.06600
C2754       C  0.37814081  0.28257905  0.25566449    -0.00600
C2755       C  0.36128430  0.26523367  0.25730980    -0.09200
C2756       C  0.36525234  0.24699984  0.27248190    -0.06600
C2757       C  0.38492477  0.24614374  0.28616433    -0.00600
C2758       C  0.40296774  0.26156078  0.28203315    -0.09100
C2759       C  0.42633897  0.25940457  0.29303562     0.61300
H2760       H  0.41215906  0.29290241  0.26516324     0.12000
H2761       H  0.35187850  0.23454383  0.27546490     0.12000
C2762       C  0.33846413  0.26671367  0.24487624     0.61500
F2763       F  0.44306429  0.26157747  0.27630325    -0.23700
F2764       F  0.42956537  0.23837062  0.30360458    -0.21000
F2765       F  0.42901040  0.27666176  0.30906144    -0.20700
F2766       F  0.34207083  0.26615302  0.22140174    -0.20700
F2767       F  0.32717434  0.28680230  0.25082442    -0.21000
F2768       F  0.32425098  0.24859848  0.25042814    -0.23700
C2769       C  0.48574449  0.38231800  0.25546219    -0.06600
C2770       C  0.46858083  0.36573861  0.25759802    -0.00600
C2771       C  0.47122648  0.34778148  0.27366330    -0.09200
C2772       C  0.48805765  0.34998308  0.29052404    -0.06600
C2773       C  0.50337469  0.36844134  0.29037557    -0.00600
C2774       C  0.50364300  0.38373231  0.27133815    -0.09100
C2775       C  0.52169398  0.40216117  0.26805191     0.61300
H2776       H  0.48414751  0.39528491  0.24225615     0.12000
H2777       H  0.48890754  0.33741024  0.30421421     0.12000
C2778       C  0.45705334  0.32610380  0.27353848     0.61500
F2779       F  0.51903837  0.41374618  0.24744267    -0.23700
F2780       F  0.54321366  0.39211545  0.26784077    -0.21000
F2781       F  0.52026386  0.41820667  0.28549669    -0.20700
F2782       F  0.44492793  0.32352648  0.25336666    -0.20700
F2783       F  0.44200815  0.32636801  0.29191052    -0.21000
F2784       F  0.47140515  0.30722959  0.27557029    -0.23700
C2785       C  0.20944571  0.52499029  0.11960719    -0.06600
C2786       C  0.21165862  0.50553131  0.13338592    -0.00600
C2787       C  0.23131585  0.50179062  0.14684929    -0.09200
C2788       C  0.24784829  0.51912154  0.14746418    -0.06600
C2789       C  0.24482729  0.53932930  0.13474454    -0.00600
C2790       C  0.22598332  0.54202889  0.11974886    -0.09100
C2791       C  0.22317196  0.56278901  0.10407517     0.61300
H2792       H  0.19425726  0.52695048  0.10906738     0.12000
H2793       H  0.26285138  0.51733342  0.15827633     0.12000
C2794       C  0.23426358  0.47991760  0.16065564     0.61500
F2795       F  0.20558164  0.55984736  0.08850270    -0.23700
F2796       F  0.24307516  0.56631607  0.09167907    -0.21000
F2797       F  0.21820560  0.58210727  0.11695283    -0.20700
F2798       F  0.23484711  0.46130279  0.14594806    -0.20700
F2799       F  0.21611548  0.47748857  0.17575122    -0.21000
F2800       F  0.25432472  0.47994014  0.17321251    -0.23700
C2801       C  0.24401496  0.40725471  0.12685891    -0.06600
C2802       C  0.22780614  0.39127037  0.13549207    -0.00600
C2803       C  0.23625271  0.37155401  0.14697530    -0.09200
C2804       C  0.26016932  0.36843703  0.14889870    -0.06600
C2805       C  0.27624773  0.38470545  0.14092740    -0.00600
C2806       C  0.26796485  0.40453536  0.12972638    -0.09100
C2807       C  0.28420425  0.42311200  0.12168223     0.61300
H2808       H  0.23783456  0.42239482  0.11812183     0.12000
H2809       H  0.26653768  0.35326039  0.15743641     0.12000
C2810       C  0.22037298  0.35399538  0.15767564     0.61500
F2811       F  0.27269368  0.44156292  0.11204207    -0.23700
F2812       F  0.29898362  0.41424497  0.10529647    -0.21000
F2813       F  0.29669863  0.43114953  0.14011210    -0.20700
F2814       F  0.20705121  0.34415345  0.14081383    -0.20700
F2815       F  0.20651279  0.36454495  0.17388652    -0.21000
F2816       F  0.23226544  0.33655377  0.16865118    -0.23700
C2817       C  0.11337994  0.38521561  0.24957351    -0.06600
C2818       C  0.13159525  0.38155943  0.23381379    -0.00600
C2819       C  0.15329631  0.37578773  0.24264770    -0.09200
C2820       C  0.15608109  0.37412035  0.26673374    -0.06600
C2821       C  0.13798388  0.37801152  0.28265062    -0.00600
C2822       C  0.11609197  0.38346383  0.27373759    -0.09100
C2823       C  0.09562644  0.38725367  0.28942691     0.61300
H2824       H  0.09686947  0.38998545  0.24272603     0.12000
H2825       H  0.17283874  0.36996884  0.27328011     0.12000
C2826       C  0.17357943  0.37212114  0.22672127     0.61500
F2827       F  0.07574747  0.39135362  0.27717883    -0.23700
F2828       F  0.09939325  0.40601624  0.30340130    -0.21000
F2829       F  0.09222081  0.36797569  0.30285450    -0.20700
F2830       F  0.17696736  0.39147219  0.21339879    -0.20700
F2831       F  0.16943995  0.35352885  0.21263940    -0.21000
F2832       F  0.19356004  0.36782726  0.23864031    -0.23700
C2833       C  0.09777666  0.53727558  0.02445616    -0.06600
C2834       C  0.11480372  0.53550009  0.00745873    -0.00600
C2835       C  0.12662484  0.51430008  0.00464614    -0.09200
C2836       C  0.12474773  0.49783665  0.02222364    -0.06600
C2837       C  0.11034427  0.50143844  0.04128420    -0.00600
C2838       C  0.09463199  0.52001008  0.04088223    -0.09100
C2839       C  0.07472864  0.52203375  0.05757888     0.61300
H2840       H  0.08743773  0.55264487  0.02543580     0.12000
H2841       H  0.13552343  0.48276184  0.02178239     0.12000
C2842       C  0.14136644  0.50890633  0.98376557     0.61500
F2843       F  0.05766400  0.53605285  0.04878667    -0.23700
F2844       F  0.08198567  0.53132307  0.07811433    -0.21000
F2845       F  0.06527712  0.50066469  0.06147278    -0.20700
F2846       F  0.16098604  0.52201925  0.98395671    -0.20700
F2847       F  0.12905087  0.51329206  0.96396181    -0.21000
F2848       F  0.14792250  0.48603214  0.98323640    -0.23700
C2849       C  0.01862498  0.50126731  0.11546348    -0.06600
C2850       C  0.02596909  0.49377675  0.13701474    -0.00600
C2851       C  0.01385536  0.50026039  0.15715046    -0.09200
C2852       C  0.99614288  0.51643767  0.15501847    -0.06600
C2853       C  0.99069646  0.52596319  0.13363531    -0.00600
C2854       C  0.00062215  0.51699684  0.11343691    -0.09100
C2855       C  0.99359617  0.52548312  0.09002362     0.61300
H2856       H  0.02797871  0.49574458  0.10025847     0.12000
H2857       H  0.98773524  0.52321500  0.17027766     0.12000
C2858       C  0.02053720  0.49145685  0.18079443     0.61500
F2859       F  0.00096885  0.51079546  0.07279987    -0.23700
F2860       F  0.00321453  0.54665429  0.08653457    -0.21000
F2861       F  0.97001984  0.52734994  0.08872303    -0.20700
F2862       F  0.04311616  0.49675027  0.18531831    -0.20700
F2863       F  0.01775832  0.46793112  0.18164807    -0.21000
F2864       F  0.00714873  0.50106115  0.19799371    -0.23700
C2865       C  0.24050294  0.34585658  0.63225953    -0.06600
C2866       C  0.22489872  0.36458707  0.63230662    -0.00600
C2867       C  0.23381130  0.38697981  0.63401482    -0.09200
C2868       C  0.25790495  0.38980309  0.63437395    -0.06600
C2869       C  0.27341698  0.37101394  0.63375003    -0.00600
C2870       C  0.26444692  0.34862941  0.63323228    -0.09100
C2871       C  0.28004984  0.32774310  0.63243040     0.61300
H2872       H  0.23375416  0.32864532  0.63116485     0.12000
H2873       H  0.26492301  0.40693969  0.63431578     0.12000
C2874       C  0.21803909  0.40765911  0.63569566     0.61500
F2875       F  0.26797846  0.30756492  0.63513349    -0.23700
F2876       F  0.29590478  0.32886195  0.64995197    -0.21000
F2877       F  0.29133594  0.32696443  0.61152785    -0.20700
F2878       F  0.23006849  0.42777597  0.63884549    -0.20700
F2879       F  0.20329090  0.40507728  0.65414998    -0.21000
F2880       F  0.20547744  0.40971803  0.61570733    -0.23700
C2881       C  0.23531246  0.26200655  0.63114608    -0.06600
C2882       C  0.21876157  0.25964464  0.61392976    -0.00600
C2883       C  0.22252935  0.24371233  0.59606057    -0.09200
C2884       C  0.23967190  0.22713435  0.59903898    -0.06600
C2885       C  0.25328391  0.22661676  0.61885099    -0.00600
C2886       C  0.25242785  0.24541937  0.63438880    -0.09100
C2887       C  0.26768798  0.24725158  0.65543681     0.61300
H2888       H  0.23309018  0.27539891  0.64389647     0.12000
H2889       H  0.24156970  0.21362613  0.58628369     0.12000
C2890       C  0.20897726  0.24329604  0.57395094     0.61500
F2891       F  0.26351482  0.26718436  0.66777235    -0.23700
F2892       F  0.29040267  0.24744707  0.64873141    -0.21000
F2893       F  0.26379142  0.22897653  0.67006623    -0.20700
F2894       F  0.19469966  0.26215899  0.57168528    -0.20700
F2895       F  0.19608682  0.22351353  0.57313180    -0.21000
F2896       F  0.22396774  0.24337616  0.55549466    -0.23700
C2897       C  0.13524242  0.34605233  0.51832052    -0.06600
C2898       C  0.13282633  0.36526177  0.53298553    -0.00600
C2899       C  0.13193930  0.38736597  0.52318338    -0.09200
C2900       C  0.13256857  0.38943558  0.49901831    -0.06600
C2901       C  0.13428536  0.37021017  0.48433417    -0.00600
C2902       C  0.13633367  0.34814031  0.49419577    -0.09100
C2903       C  0.14013675  0.32698662  0.47944088     0.61300
H2904       H  0.13587773  0.32915417  0.52598782     0.12000
H2905       H  0.13216324  0.40631834  0.49129348     0.12000
C2906       C  0.12995638  0.40855583  0.53811040     0.61500
F2907       F  0.14355973  0.30744895  0.49260028    -0.23700
F2908       F  0.15922967  0.32983509  0.46564500    -0.21000
F2909       F  0.12119676  0.32358370  0.46575971    -0.20700
F2910       F  0.14831069  0.40934571  0.55300914    -0.20700
F2911       F  0.10981045  0.40788260  0.55061395    -0.21000
F2912       F  0.12996638  0.42850347  0.52518668    -0.23700
C2913       C  0.01164978  0.25779464  0.62464050    -0.06600
C2914       C  0.02924640  0.25552901  0.64079724    -0.00600
C2915       C  0.02721866  0.23917436  0.65856007    -0.09200
C2916       C  0.01038647  0.22239220  0.65665728    -0.06600
C2917       C  0.99480680  0.22244044  0.63841146    -0.00600
C2918       C  0.99414231  0.24149633  0.62309274    -0.09100
C2919       C  0.97642125  0.24406524  0.60415746     0.61300
H2920       H  0.01291593  0.27117014  0.61177432     0.12000
H2921       H  0.00999640  0.20855196  0.66914550     0.12000
C2922       C  0.04286768  0.23823640  0.67918574     0.61500
F2923       F  0.97902955  0.26432993  0.59200655    -0.23700
F2924       F  0.95467163  0.24427865  0.61361779    -0.21000
F2925       F  0.97851428  0.22617397  0.58868559    -0.20700
F2926       F  0.05414363  0.25873655  0.68259951    -0.20700
F2927       F  0.05869268  0.22074358  0.67621534    -0.21000
F2928       F  0.03008891  0.23389025  0.69874720    -0.23700
C2929       C  0.60705361  0.39035627  0.26732762    -0.06600
C2930       C  0.61965110  0.37798804  0.28413994    -0.00600
C2931       C  0.63765571  0.36362867  0.27622119    -0.09200
C2932       C  0.64015611  0.36001509  0.25219228    -0.06600
C2933       C  0.62613201  0.37092498  0.23544586    -0.00600
C2934       C  0.61013164  0.38746306  0.24337684    -0.09100
C2935       C  0.59598704  0.40185015  0.22693135     0.61300
H2936       H  0.59405483  0.40241134  0.27307379     0.12000
H2937       H  0.65340183  0.34827416  0.24630324     0.12000
C2938       C  0.65447799  0.35259643  0.29273270     0.61500
F2939       F  0.58291471  0.41822002  0.23829744    -0.23700
F2940       F  0.58136708  0.38785282  0.21480577    -0.21000
F2941       F  0.61027414  0.41330310  0.21188581    -0.20700
F2942       F  0.64323311  0.33765568  0.30727221    -0.20700
F2943       F  0.66498638  0.36949416  0.30551851    -0.21000
F2944       F  0.67143519  0.34035994  0.28131085    -0.23700
C2945       C  0.53419747  0.23672788  0.15764882    -0.06600
C2946       C  0.53389399  0.25370146  0.14055272    -0.00600
C2947       C  0.51421033  0.25608665  0.12638646    -0.09200
C2948       C  0.49769021  0.23871871  0.12718989    -0.06600
C2949       C  0.49996312  0.21987388  0.14198632    -0.00600
C2950       C  0.51719144  0.22000151  0.15904506    -0.09100
C2951       C  0.51776585  0.20287407  0.17875345     0.61300
H2952       H  0.54852278  0.23595197  0.16943614     0.12000
H2953       H  0.48371131  0.23892145  0.11499382     0.12000
C2954       C  0.51073918  0.27599169  0.10983245     0.61500
F2955       F  0.53190471  0.21022699  0.19627723    -0.23700
F2956       F  0.52588666  0.18183719  0.17129781    -0.21000
F2957       F  0.49600926  0.20038636  0.18781285    -0.20700
F2958       F  0.52676348  0.27491433  0.09232602    -0.20700
F2959       F  0.51267752  0.29655007  0.12150652    -0.21000
F2960       F  0.48924233  0.27568376  0.09989896    -0.23700
C2961       C  0.51072256  0.36356565  0.12030979    -0.06600
C2962       C  0.52662231  0.36773256  0.13812016    -0.00600
C2963       C  0.51799984  0.37333856  0.16007536    -0.09200
C2964       C  0.49404993  0.37522651  0.16324176    -0.06600
C2965       C  0.47793566  0.37117095  0.14549004    -0.00600
C2966       C  0.48662796  0.36496712  0.12357306    -0.09100
C2967       C  0.47076708  0.35951576  0.10380926     0.61300
H2968       H  0.51743758  0.35854855  0.10367035     0.12000
H2969       H  0.48774376  0.37957706  0.18019241     0.12000
C2970       C  0.53395502  0.37602764  0.18040060     0.61500
F2971       F  0.48272712  0.35443848  0.08385216    -0.23700
F2972       F  0.45666806  0.37813346  0.09937830    -0.21000
F2973       F  0.45760147  0.34068252  0.10941667    -0.20700
F2974       F  0.54881148  0.39395085  0.17638045    -0.20700
F2975       F  0.54636281  0.35596154  0.18354535    -0.21000
F2976       F  0.52218241  0.38064323  0.20056242    -0.23700
C2977       C  0.64577252  0.21736174  0.02202567    -0.06600
C2978       C  0.62673711  0.21782828  0.00743706    -0.00600
C2979       C  0.61234491  0.23761931  0.00715154    -0.09200
C2980       C  0.61560611  0.25437516  0.02416897    -0.06600
C2981       C  0.63311010  0.25230214  0.04049412    -0.00600
C2982       C  0.64992525  0.23504764  0.03766758    -0.09100
C2983       C  0.67257087  0.23484882  0.05020080     0.61300
H2984       H  0.65765382  0.20305264  0.02115319     0.12000
H2985       H  0.60342476  0.26839441  0.02582670     0.12000
C2986       C  0.59285591  0.24067908  0.99016395     0.61500
F2987       F  0.69005673  0.23159989  0.03443232    -0.23700
F2988       F  0.67286074  0.21704818  0.06590872    -0.21000
F2989       F  0.67682754  0.25527758  0.06140332    -0.20700
F2990       F  0.57694603  0.22347860  0.99315267    -0.20700
F2991       F  0.60127260  0.24000756  0.96797275    -0.21000
F2992       F  0.58173067  0.26156377  0.99291668    -0.23700
C2993       C  0.25006705  0.13773155  0.74121960    -0.06600
C2994       C  0.24861631  0.12163586  0.72343657    -0.00600
C2995       C  0.23413566  0.10247712  0.72593050    -0.09200
C2996       C  0.21816579  0.10263853  0.74387929    -0.06600
C2997       C  0.21715066  0.12071370  0.75972542    -0.00600
C2998       C  0.23477784  0.13741720  0.75980932    -0.09100
C2999       C  0.23713362  0.15548514  0.77845345     0.61300
H3000       H  0.26220557  0.15159304  0.73965935     0.12000
H3001       H  0.20555478  0.08912261  0.74492206     0.12000
C3002       C  0.23553146  0.08187144  0.71008728     0.61500
F3003       F  0.25711912  0.16790880  0.77606168    -0.23700
F3004       F  0.23778464  0.14494998  0.79973719    -0.21000
F3005       F  0.21897651  0.17080032  0.77753199    -0.20700
F3006       F  0.25819933  0.07589417  0.70636435    -0.20700
F3007       F  0.22514790  0.08675344  0.68935604    -0.21000
F3008       F  0.22469536  0.06309630  0.71966246    -0.23700
C3009       C  0.14697755  0.00931177  0.73401341    -0.06600
C3010       C  0.12671351  0.99675856  0.73204331    -0.00600
C3011       C  0.11009943  0.99771898  0.74994214    -0.09200
C3012       C  0.11361361  0.01315509  0.76805799    -0.06600
C3013       C  0.13223126  0.02816646  0.76791027    -0.00600
C3014       C  0.15024757  0.02477857  0.75201353    -0.09100
C3015       C  0.17204205  0.03870382  0.75240995     0.61300
H3016       H  0.15989242  0.00789149  0.72067429     0.12000
H3017       H  0.10037775  0.01558273  0.78089686     0.12000
C3018       C  0.08762341  0.98475674  0.74891890     0.61500
F3019       F  0.19030676  0.02569289  0.74442609    -0.23700
F3020       F  0.17718218  0.04569121  0.77449988    -0.21000
F3021       F  0.16952805  0.05773715  0.73842855    -0.20700
F3022       F  0.09177530  0.96144171  0.74792376    -0.20700
F3023       F  0.07544260  0.99156256  0.72973001    -0.21000
F3024       F  0.07402763  0.98882984  0.76804824    -0.23700
C3025       C  0.13239372  0.23009065  0.75684974    -0.06600
C3026       C  0.11404522  0.21478676  0.75680386    -0.00600
C3027       C  0.09694524  0.21660064  0.73981966    -0.09200
C3028       C  0.10057695  0.23164333  0.72148035    -0.06600
C3029       C  0.11992169  0.24571372  0.72049212    -0.00600
C3030       C  0.13591161  0.24551304  0.73882496    -0.09100
C3031       C  0.15739808  0.26014233  0.73899886     0.61300
H3032       H  0.14507533  0.22866360  0.77028878     0.12000
H3033       H  0.08814201  0.23237929  0.70769787     0.12000
C3034       C  0.07495132  0.20294105  0.74034427     0.61500
F3035       F  0.17128657  0.25530664  0.75764172    -0.23700
F3036       F  0.15140091  0.28308203  0.74026845    -0.21000
F3037       F  0.17016144  0.25612869  0.71932860    -0.20700
F3038       F  0.07005760  0.19476053  0.76210931    -0.20700
F3039       F  0.07664532  0.18470978  0.72523773    -0.21000
F3040       F  0.05681766  0.21681250  0.73379204    -0.23700
C3041       C  0.99927917  0.14335246  0.74026040    -0.06600
C3042       C  0.99903412  0.12590884  0.72371115    -0.00600
C3043       C  0.01380984  0.10670550  0.72570482    -0.09200
C3044       C  0.02991416  0.10657024  0.74335759    -0.06600
C3045       C  0.03092224  0.12443571  0.75930407    -0.00600
C3046       C  0.01472595  0.14256752  0.75868723    -0.09100
C3047       C  0.01327757  0.16136386  0.77665226     0.61300
H3048       H  0.98737744  0.15764427  0.73875837     0.12000
H3049       H  0.04233743  0.09271800  0.74454855     0.12000
C3050       C  0.01254926  0.08644004  0.70931307     0.61500
F3051       F  0.99085664  0.16367714  0.78407516    -0.23700
F3052       F  0.02018648  0.18188937  0.76705825    -0.21000
F3053       F  0.02663130  0.15680416  0.79569920    -0.20700
F3054       F  0.01557019  0.09365154  0.68688908    -0.20700
F3055       F  0.99141146  0.07613040  0.71144367    -0.21000
F3056       F  0.02917824  0.07006664  0.71395217    -0.23700
C3057       C  0.75139421  0.74222687  0.64720676    -0.06600
C3058       C  0.75486368  0.73113284  0.62611027    -0.00600
C3059       C  0.74207372  0.73800703  0.60674696    -0.09200
C3060       C  0.72301376  0.75216624  0.61015431    -0.06600
C3061       C  0.71749969  0.76042944  0.63198606    -0.00600
C3062       C  0.73272362  0.75698960  0.65060991    -0.09100
C3063       C  0.72852070  0.76728440  0.67431051     0.61300
H3064       H  0.76205706  0.73748624  0.66168317     0.12000
H3065       H  0.71192389  0.75623669  0.59574201     0.12000
C3066       C  0.74779139  0.73115119  0.58239141     0.61500
F3067       F  0.74466062  0.76002657  0.69012371    -0.23700
F3068       F  0.70723486  0.76089329  0.68249325    -0.21000
F3069       F  0.72964995  0.79095581  0.67303779    -0.20700
F3070       F  0.72947561  0.71959795  0.57318310    -0.20700
F3071       F  0.76716804  0.71749373  0.58093648    -0.21000
F3072       F  0.75152866  0.75073925  0.56950122    -0.23700
C3073       C  0.74818834  0.52533645  0.62484299    -0.06600
C3074       C  0.74606426  0.54229902  0.64179265    -0.00600
C3075       C  0.72900619  0.54002022  0.65885283    -0.09200
C3076       C  0.71180714  0.52374117  0.65559695    -0.06600
C3077       C  0.71236524  0.50832572  0.63709402    -0.00600
C3078       C  0.73183914  0.50797637  0.62233978    -0.09100
C3079       C  0.73513431  0.49036171  0.60336338     0.61300
H3080       H  0.76205996  0.52662986  0.61248581     0.12000
H3081       H  0.69774346  0.52300147  0.66785227     0.12000
C3082       C  0.72877410  0.55338837  0.68110746     0.61500
F3083       F  0.75537612  0.49360642  0.59137295    -0.23700
F3084       F  0.71737257  0.49191985  0.58780787    -0.21000
F3085       F  0.73593245  0.46858243  0.61278670    -0.20700
F3086       F  0.71045963  0.56853614  0.68125411    -0.20700
F3087       F  0.74880605  0.56533131  0.68462398    -0.21000
F3088       F  0.72640279  0.53814023  0.69917156    -0.23700
C3089       C  0.73369725  0.60879511  0.72571921    -0.06600
C3090       C  0.74873506  0.62749565  0.72615903    -0.00600
C3091       C  0.74981924  0.64123316  0.74627173    -0.09200
C3092       C  0.73251388  0.63866173  0.76282398    -0.06600
C3093       C  0.71530655  0.62220289  0.76029590    -0.00600
C3094       C  0.71772882  0.60518603  0.74330031    -0.09100
C3095       C  0.70374096  0.58341084  0.74361796     0.61300
H3096       H  0.73401961  0.59711594  0.71106581     0.12000
H3097       H  0.73137075  0.65076849  0.77699353     0.12000
C3098       C  0.76801766  0.65932165  0.74989922     0.61500
F3099       F  0.71613216  0.56550379  0.73410835    -0.23700
F3100       F  0.68386314  0.58652695  0.73118811    -0.21000
F3101       F  0.69832626  0.57718463  0.76593366    -0.20700
F3102       F  0.76519115  0.67700686  0.73431322    -0.20700
F3103       F  0.78944814  0.64961449  0.74713201    -0.21000
F3104       F  0.76705933  0.66849886  0.77181754    -0.23700
C3105       C  0.74984301  0.61335334  0.52549689    -0.06600
C3106       C  0.75139076  0.63415181  0.53746142    -0.00600
C3107       C  0.73832078  0.65328113  0.53038700    -0.09200
C3108       C  0.72144350  0.64999376  0.51381333    -0.06600
C3109       C  0.71805232  0.62851269  0.50370959    -0.00600
C3110       C  0.73313799  0.61005247  0.50864513    -0.09100
C3111       C  0.73063839  0.58661127  0.49758161     0.61300
H3112       H  0.76057206  0.59903019  0.53078680     0.12000
H3113       H  0.70982599  0.66403217  0.50956575     0.12000
C3114       C  0.74077289  0.67657294  0.54143854     0.61500
F3115       F  0.74663211  0.57100880  0.50576733    -0.23700
F3116       F  0.73374670  0.58851413  0.47410867    -0.21000
F3117       F  0.70911874  0.57793261  0.50212739    -0.20700
F3118       F  0.76349176  0.68097373  0.54626920    -0.20700
F3119       F  0.72810178  0.67701403  0.56150658    -0.21000
F3120       F  0.73297346  0.69379784  0.52700484    -0.23700
C3121       C  0.75934182  0.24071349  0.13114285    -0.06600
C3122       C  0.75471169  0.22065640  0.11874671    -0.00600
C3123       C  0.73611777  0.22059466  0.10336552    -0.09200
C3124       C  0.71922227  0.23743777  0.10594529    -0.06600
C3125       C  0.72160376  0.25537652  0.12178762    -0.00600
C3126       C  0.74323523  0.25874031  0.13226866    -0.09100
C3127       C  0.74917276  0.28035735  0.14533579     0.61300
H3128       H  0.77465506  0.24142841  0.14155773     0.12000
H3129       H  0.70352947  0.23590025  0.09620969     0.12000
C3130       C  0.73306337  0.20249366  0.08505627     0.61500
F3131       F  0.77241476  0.28150186  0.14972559    -0.23700
F3132       F  0.73766511  0.28084691  0.16610768    -0.21000
F3133       F  0.74330957  0.29944910  0.13242693    -0.20700
F3134       F  0.71995729  0.18469550  0.09352451    -0.20700
F3135       F  0.75400004  0.19411725  0.07752951    -0.21000
F3136       F  0.72213112  0.21199683  0.06630570    -0.23700
C3137       C  0.72879269  0.14711158  0.04195825    -0.06600
C3138       C  0.74596560  0.13015450  0.04152564    -0.00600
C3139       C  0.74741416  0.11504865  0.02235793    -0.09200
C3140       C  0.72953790  0.11541465  0.00626866    -0.06600
C3141       C  0.71091368  0.13051441  0.00859934    -0.00600
C3142       C  0.71164056  0.14804876  0.02526483    -0.09100
C3143       C  0.69411095  0.16731363  0.02623023     0.61300
H3144       H  0.72832345  0.15931126  0.05595137     0.12000
H3145       H  0.72921889  0.10278889  0.99263177     0.12000
C3146       C  0.76677057  0.09778755  0.01926228     0.61500
F3147       F  0.70353663  0.18665945  0.03578496    -0.23700
F3148       F  0.67562352  0.16069171  0.03950399    -0.21000
F3149       F  0.68680227  0.17330464  0.00442531    -0.20700
F3150       F  0.76622331  0.08174995  0.03677923    -0.20700
F3151       F  0.78750095  0.10907496  0.01931525    -0.21000
F3152       F  0.76521473  0.08609304  0.99864054    -0.23700
C3153       C  0.73621685  0.03313644  0.16173912    -0.06600
C3154       C  0.75233151  0.03244127  0.14384377    -0.00600
C3155       C  0.75317193  0.01294207  0.12921448    -0.09200
C3156       C  0.73464691  0.99771672  0.12991265    -0.06600
C3157       C  0.71625301  0.00103504  0.14518845    -0.00600
C3158       C  0.71828271  0.01738413  0.16298858    -0.09100
C3159       C  0.70188546  0.01841045  0.18322860     0.61300
H3160       H  0.73683730  0.04709778  0.17397577     0.12000
H3161       H  0.73366507  0.98410414  0.11732341     0.12000
C3162       C  0.77266689  0.00837030  0.11242236     0.61500
F3163       F  0.71061127  0.03166378  0.20082165    -0.23700
F3164       F  0.69840718  0.99654647  0.19177011    -0.21000
F3165       F  0.68121709  0.02794838  0.17667679    -0.20700
F3166       F  0.77242066  0.02444693  0.09495243    -0.20700
F3167       F  0.77102949  0.98686865  0.10245506    -0.21000
F3168       F  0.79334538  0.00917338  0.12389223    -0.23700
C3169       C  0.10627898  0.51081017  0.37866203    -0.06600
C3170       C  0.12522402  0.52570879  0.37676492    -0.00600
C3171       C  0.14729035  0.51598739  0.37470230    -0.09200
C3172       C  0.14974945  0.49191047  0.37510373    -0.06600
C3173       C  0.13099179  0.47688231  0.37756185    -0.00600
C3174       C  0.10878593  0.48654397  0.37940946    -0.09100
C3175       C  0.08801374  0.47144466  0.38259415     0.61300
H3176       H  0.08936380  0.51840916  0.37918246     0.12000
H3177       H  0.16671798  0.48453867  0.37370625     0.12000
C3178       C  0.16812061  0.53101531  0.37125628     0.61500
F3179       F  0.06794163  0.48418129  0.38354904    -0.23700
F3180       F  0.08999412  0.45918694  0.40285170    -0.21000
F3181       F  0.08641545  0.45631786  0.36439966    -0.20700
F3182       F  0.17024979  0.54573426  0.38972367    -0.20700
F3183       F  0.16573183  0.54371825  0.35131265    -0.21000
F3184       F  0.18809711  0.51821580  0.36949051    -0.23700
C3185       C  0.23736050  0.63412110  0.35857636    -0.06600
C3186       C  0.22114419  0.62686282  0.37532774    -0.00600
C3187       C  0.22969057  0.61806962  0.39630202    -0.09200
C3188       C  0.25368749  0.61703929  0.39962248    -0.06600
C3189       C  0.26972358  0.62333197  0.38247199    -0.00600
C3190       C  0.26130719  0.63204613  0.36150654    -0.09100
C3191       C  0.27738569  0.63766510  0.34177306     0.61300
H3192       H  0.23117023  0.64081943  0.34234825     0.12000
H3193       H  0.26024438  0.61016663  0.41567059     0.12000
C3194       C  0.21381137  0.60903397  0.41478721     0.61500
F3195       F  0.26573010  0.64531960  0.32253919    -0.23700
F3196       F  0.28965688  0.61820708  0.33566282    -0.21000
F3197       F  0.29236782  0.65468327  0.34832866    -0.20700
F3198       F  0.20171113  0.59062562  0.40624526    -0.20700
F3199       F  0.19876075  0.62611848  0.42166270    -0.21000
F3200       F  0.22566935  0.60158191  0.43397759    -0.23700
C3201       C  0.23526305  0.60294489  0.23222127    -0.06600
C3202       C  0.24945339  0.62227915  0.23196217    -0.00600
C3203       C  0.24853020  0.63812474  0.25049345    -0.09200
C3204       C  0.23168110  0.63505262  0.26737576    -0.06600
C3205       C  0.21549605  0.61752661  0.26562635    -0.00600
C3206       C  0.21858862  0.59994189  0.24920701    -0.09100
C3207       C  0.20410076  0.57845446  0.24835677     0.61300
H3208       H  0.23663407  0.59042988  0.21848849     0.12000
H3209       H  0.22949932  0.64785126  0.28066505     0.12000
C3210       C  0.26345316  0.65937117  0.25158361     0.61500
F3211       F  0.21785953  0.55959377  0.24369605    -0.23700
F3212       F  0.18800640  0.58062490  0.23111984    -0.21000
F3213       F  0.19312351  0.57429210  0.26902415    -0.20700
F3214       F  0.25952612  0.67301074  0.23251717    -0.20700
F3215       F  0.28626006  0.65299577  0.25240185    -0.21000
F3216       F  0.25888243  0.67252681  0.27088841    -0.23700
C3217       C  0.14894978  0.52944817  0.24665084    -0.06600
C3218       C  0.13010148  0.53055518  0.26170197    -0.00600
C3219       C  0.11469739  0.51171616  0.26267898    -0.09200
C3220       C  0.11670323  0.49452162  0.24589993    -0.06600
C3221       C  0.13365983  0.49541074  0.22890666    -0.00600
C3222       C  0.15153973  0.51141362  0.23090092    -0.09100
C3223       C  0.17340166  0.50994706  0.21683841     0.61300
H3224       H  0.16160120  0.54295429  0.24693516     0.12000
H3225       H  0.10374006  0.48141410  0.24468429     0.12000
C3226       C  0.09526131  0.51018297  0.28004296     0.61500
F3227       F  0.17375862  0.52745542  0.20082008    -0.23700
F3228       F  0.17568633  0.48911757  0.20563007    -0.21000
F3229       F  0.19204924  0.51216604  0.23122414    -0.20700
F3230       F  0.08009939  0.52823446  0.27691338    -0.20700
F3231       F  0.10400524  0.51068639  0.30208706    -0.21000
F3232       F  0.08307216  0.49001526  0.27785888    -0.23700
C3233       C  0.00834266  0.64639984  0.22810947    -0.06600
C3234       C  0.99499972  0.62658685  0.22708217    -0.00600
C3235       C  0.99565454  0.61037769  0.24530234    -0.09200
C3236       C  0.01201728  0.61344220  0.26252689    -0.06600
C3237       C  0.02752576  0.63167788  0.26161888    -0.00600
C3238       C  0.02437578  0.64952423  0.24549617    -0.09100
C3239       C  0.03826051  0.67139656  0.24587743     0.61300
H3240       H  0.00691856  0.65905261  0.21449698     0.12000
H3241       H  0.01415711  0.60042675  0.27563896     0.12000
C3242       C  0.98063964  0.58914861  0.24593278     0.61500
F3243       F  0.02706164  0.68889126  0.23429339    -0.23700
F3244       F  0.05921641  0.66775023  0.23538803    -0.21000
F3245       F  0.04151396  0.67855783  0.26827292    -0.20700
F3246       F  0.98463779  0.57582421  0.22667037    -0.20700
F3247       F  0.95786590  0.59560332  0.24666290    -0.21000
F3248       F  0.98488536  0.57566592  0.26508808    -0.23700
C3249       C  0.09565941  0.71996899  0.24328789    -0.06600
C3250       C  0.11418635  0.71936734  0.25852748    -0.00600
C3251       C  0.13022966  0.73760954  0.25846627    -0.09200
C3252       C  0.12797094  0.75465138  0.24167359    -0.06600
C3253       C  0.11144105  0.75316573  0.22439904    -0.00600
C3254       C  0.09374173  0.73689663  0.22636133    -0.09100
C3255       C  0.07271986  0.73655156  0.21122241     0.61300
H3256       H  0.08284663  0.70656114  0.24410293     0.12000
H3257       H  0.14082578  0.76793263  0.24042423     0.12000
C3258       C  0.15094739  0.73824451  0.27421091     0.61500
F3259       F  0.05340460  0.73529440  0.22496283    -0.23700
F3260       F  0.07357507  0.71745337  0.19714743    -0.21000
F3261       F  0.07060368  0.75605346  0.19784877    -0.20700
F3262       F  0.16421563  0.71877133  0.27089018    -0.20700
F3263       F  0.14390112  0.73953743  0.29686376    -0.21000
F3264       F  0.16470704  0.75704730  0.26992989    -0.23700
C3265       C  0.15354182  0.74113145  0.03528671    -0.06600
C3266       C  0.13501198  0.75653781  0.03563560    -0.00600
C3267       C  0.12085411  0.75859220  0.01588339    -0.09200
C3268       C  0.12306697  0.74182095  0.99872738    -0.06600
C3269       C  0.13920156  0.72405357  0.00070116    -0.00600
C3270       C  0.15653801  0.72560436  0.01731212    -0.09100
C3271       C  0.17770626  0.71058966  0.01713593     0.61300
H3272       H  0.16546922  0.74071490  0.04951812     0.12000
H3273       H  0.11058323  0.74110946  0.98502331     0.12000
C3274       C  0.10248006  0.77697725  0.01334392     0.61500
F3275       F  0.19658924  0.72379047  0.02224981    -0.23700
F3276       F  0.18148058  0.70074161  0.99581340    -0.21000
F3277       F  0.17545856  0.69355913  0.03351008    -0.20700
F3278       F  0.11195941  0.79842406  0.01646147    -0.20700
F3279       F  0.08523298  0.77346019  0.02926086    -0.21000
F3280       F  0.09273961  0.77675540  0.99169637    -0.23700
C3281       C  0.23896928  0.76154881  0.13656858    -0.06600
C3282       C  0.22135025  0.75842866  0.12057593    -0.00600
C3283       C  0.22376738  0.74112348  0.10378498    -0.09200
C3284       C  0.23997596  0.72377676  0.10751377    -0.06600
C3285       C  0.25484230  0.72437493  0.12639123    -0.00600
C3286       C  0.25606784  0.74475489  0.13972146    -0.09100
C3287       C  0.27383834  0.74822235  0.15835050     0.61300
H3288       H  0.23784881  0.77589837  0.14835713     0.12000
H3289       H  0.24036441  0.70914649  0.09602423     0.12000
C3290       C  0.20946318  0.74003317  0.08217413     0.61500
F3291       F  0.27270018  0.77008655  0.16758170    -0.23700
F3292       F  0.29556340  0.74525569  0.14925276    -0.21000
F3293       F  0.27032653  0.73274401  0.17600867    -0.20700
F3294       F  0.19738198  0.76014402  0.07829448    -0.20700
F3295       F  0.19437567  0.72191462  0.08370744    -0.21000
F3296       F  0.22372059  0.73664212  0.06346372    -0.23700
C3297       C  0.03067160  0.73550367  0.15325193    -0.06600
C3298       C  0.03299141  0.74841954  0.13305113    -0.00600
C3299       C  0.01709065  0.74570954  0.11491534    -0.09200
C3300       C  0.00072547  0.72836221  0.11695845    -0.06600
C3301       C  0.00000029  0.71394357  0.13625115    -0.00600
C3302       C  0.01394642  0.71855335  0.15538352    -0.09100
C3303       C  0.01195041  0.70538166  0.17774271     0.61300
H3304       H  0.04257540  0.73814460  0.16707619     0.12000
H3305       H  0.98937661  0.72492620  0.10277392     0.12000
C3306       C  0.01813774  0.75974791  0.09289083     0.61500
F3307       F  0.01961179  0.71847590  0.19592182    -0.23700
F3308       F  0.02499536  0.68554798  0.17648501    -0.21000
F3309       F  0.98940431  0.69980166  0.18226839    -0.20700
F3310       F  0.03914103  0.75660969  0.08227388    -0.20700
F3311       F  0.01488868  0.78273372  0.09787459    -0.21000
F3312       F  0.00136198  0.75345730  0.07742488    -0.23700
C3313       C  0.63673001  0.24691127  0.37776691    -0.06600
C3314       C  0.61815164  0.23154731  0.37908869    -0.00600
C3315       C  0.59585418  0.24066237  0.38157095    -0.09200
C3316       C  0.59302102  0.26473682  0.38302539    -0.06600
C3317       C  0.61161820  0.28019645  0.38163394    -0.00600
C3318       C  0.63389471  0.27102064  0.37883289    -0.09100
C3319       C  0.65457185  0.28648290  0.37714672     0.61300
H3320       H  0.65369774  0.23975891  0.37518861     0.12000
H3321       H  0.57593298  0.27171644  0.38507074     0.12000
C3322       C  0.57513836  0.22510311  0.38174960     0.61500
F3323       F  0.67472971  0.27406666  0.37490348    -0.23700
F3324       F  0.65611370  0.29976485  0.39674874    -0.21000
F3325       F  0.65250435  0.30056975  0.35812677    -0.20700
F3326       F  0.57660980  0.21009624  0.40009717    -0.20700
F3327       F  0.57433464  0.21270876  0.36151121    -0.21000
F3328       F  0.55485912  0.23736975  0.38381412    -0.23700
C3329       C  0.50893087  0.11387087  0.36443519    -0.06600
C3330       C  0.52442264  0.12785006  0.37692615    -0.00600
C3331       C  0.51534216  0.14264950  0.39384912    -0.09200
C3332       C  0.49143479  0.14364534  0.39681945    -0.06600
C3333       C  0.47584732  0.13161563  0.38267169    -0.00600
C3334       C  0.48484442  0.11572372  0.36670930    -0.09100
C3335       C  0.46932671  0.10146069  0.35163242     0.61300
H3336       H  0.51579646  0.10194103  0.35190175     0.12000
H3337       H  0.48469710  0.15507748  0.40987143     0.12000
C3338       C  0.53042763  0.15841816  0.40781978     0.61500
F3339       F  0.48158313  0.08625824  0.33799008    -0.23700
F3340       F  0.45678713  0.11572919  0.33737670    -0.21000
F3341       F  0.45459020  0.08881438  0.36520857    -0.20700
F3342       F  0.54161478  0.17340157  0.39324671    -0.20700
F3343       F  0.54624398  0.14561778  0.42002086    -0.21000
F3344       F  0.51794909  0.17136167  0.42345269    -0.23700
C3345       C  0.63238792  0.24580175  0.26785027    -0.06600
C3346       C  0.61588977  0.22854202  0.26654971    -0.00600
C3347       C  0.59829394  0.23018479  0.25009244    -0.09200
C3348       C  0.60098675  0.24565778  0.23203108    -0.06600
C3349       C  0.61984420  0.26031502  0.23098498    -0.00600
C3350       C  0.63455928  0.26219382  0.25033961    -0.09100
C3351       C  0.65329364  0.28009704  0.25220652     0.61300
H3352       H  0.64507096  0.24494264  0.28136122     0.12000
H3353       H  0.58868992  0.24556778  0.21810021     0.12000
C3354       C  0.57688298  0.21566266  0.25044479     0.61500
F3355       F  0.66400490  0.27941103  0.27338772    -0.23700
F3356       F  0.64390855  0.30179768  0.24966859    -0.21000
F3357       F  0.66983669  0.27638740  0.23554863    -0.20700
F3358       F  0.57456147  0.20319042  0.27052743    -0.20700
F3359       F  0.57724891  0.20077617  0.23195879    -0.21000
F3360       F  0.55791092  0.22986287  0.24865729    -0.23700
C3361       C  0.73826778  0.14218715  0.26516801    -0.06600
C3362       C  0.72151141  0.12515732  0.26562547    -0.00600
C3363       C  0.72379169  0.10578562  0.25130516    -0.09200
C3364       C  0.73955154  0.10646692  0.23326445    -0.06600
C3365       C  0.75432909  0.12508345  0.23062846    -0.00600
C3366       C  0.75522618  0.14226724  0.24798721    -0.09100
C3367       C  0.77276547  0.16141637  0.24793261     0.61300
H3368       H  0.73682663  0.15626124  0.27691981     0.12000
H3369       H  0.73982984  0.09280419  0.22082932     0.12000
C3370       C  0.70921622  0.08469912  0.25420295     0.61500
F3371       F  0.77078101  0.17526696  0.26715264    -0.23700
F3372       F  0.76984863  0.17517838  0.22877925    -0.21000
F3373       F  0.79459573  0.15207960  0.24796259    -0.20700
F3374       F  0.69019984  0.08636877  0.24021797    -0.20700
F3375       F  0.70239941  0.08230736  0.27685754    -0.21000
F3376       F  0.72162230  0.06525557  0.24829109    -0.23700
C3377       C  0.51864454  0.14611090  0.25422958    -0.06600
C3378       C  0.53782616  0.13159471  0.25392170    -0.00600
C3379       C  0.54033699  0.11459666  0.23675262    -0.09200
C3380       C  0.52422450  0.11396107  0.21913528    -0.06600
C3381       C  0.50556100  0.12908186  0.21876602    -0.00600
C3382       C  0.50206159  0.14496782  0.23686892    -0.09100
C3383       C  0.48161185  0.16109060  0.23868544     0.61300
H3384       H  0.51682256  0.15866114  0.26786994     0.12000
H3385       H  0.52615016  0.10163646  0.20525578     0.12000
C3386       C  0.55981187  0.09707497  0.23715481     0.61500
F3387       F  0.46972641  0.15629052  0.25868779    -0.23700
F3388       F  0.46660516  0.15927876  0.22050410    -0.21000
F3389       F  0.48917123  0.18350478  0.23959065    -0.20700
F3390       F  0.55965251  0.08538637  0.25784197    -0.20700
F3391       F  0.58061996  0.10787598  0.23444070    -0.21000
F3392       F  0.55783164  0.08106278  0.21975109    -0.23700
C3393       C  0.64316158  0.01280803  0.23258001    -0.06600
C3394       C  0.62128299  0.00820968  0.22428055    -0.00600
C3395       C  0.60183659  0.01934339  0.23360834    -0.09200
C3396       C  0.60528411  0.03603322  0.25040763    -0.06600
C3397       C  0.62735357  0.04173208  0.25769246    -0.00600
C3398       C  0.64656328  0.02932969  0.24956011    -0.09100
C3399       C  0.67073429  0.03249632  0.25805601     0.61300
H3400       H  0.65776788  0.00379695  0.22532879     0.12000
H3401       H  0.59084279  0.04558403  0.25718955     0.12000
C3402       C  0.57778967  0.01459068  0.22504225     0.61500
F3403       F  0.68453626  0.03844293  0.23973294    -0.23700
F3404       F  0.67863479  0.01202433  0.26719055    -0.21000
F3405       F  0.67241209  0.04910611  0.27480711    -0.20700
F3406       F  0.57225248  0.99196797  0.22935027    -0.20700
F3407       F  0.57656889  0.01874234  0.20167989    -0.21000
F3408       F  0.56158452  0.02833896  0.23581635    -0.23700
C3409       C  0.15235157  0.25886115  0.37706344    -0.06600
C3410       C  0.13675673  0.27506667  0.38671424    -0.00600
C3411       C  0.11703178  0.26660727  0.39789423    -0.09200
C3412       C  0.11325176  0.24268421  0.39796782    -0.06600
C3413       C  0.12928484  0.22658143  0.38909672    -0.00600
C3414       C  0.14940341  0.23492077  0.37878184    -0.09100
C3415       C  0.16844241  0.21878556  0.37125192     0.61300
H3416       H  0.16768097  0.26495715  0.36871919     0.12000
H3417       H  0.09788752  0.23626060  0.40606377     0.12000
C3418       C  0.10054889  0.28233635  0.41060920     0.61500
F3419       F  0.18726671  0.23043670  0.36284043    -0.23700
F3420       F  0.16067213  0.20441772  0.35413043    -0.21000
F3421       F  0.17550897  0.20589313  0.38990844    -0.20700
F3422       F  0.08988496  0.29695558  0.39524605    -0.20700
F3423       F  0.11236455  0.29498376  0.42671158    -0.21000
F3424       F  0.08378665  0.27019750  0.42218730    -0.23700
C3425       C  0.24323340  0.11599834  0.40133349    -0.06600
C3426       C  0.22671021  0.12952555  0.38955797    -0.00600
C3427       C  0.23471611  0.14678758  0.37454937    -0.09200
C3428       C  0.25854292  0.15053561  0.37289792    -0.06600
C3429       C  0.27500181  0.13763139  0.38541557    -0.00600
C3430       C  0.26706146  0.11972670  0.39970442    -0.09100
C3431       C  0.28340239  0.10479462  0.41348936     0.61300
H3432       H  0.23730630  0.10230669  0.41242820     0.12000
H3433       H  0.26445208  0.16401679  0.36156109     0.12000
C3434       C  0.21840001  0.16132929  0.36043426     0.61500
F3435       F  0.27201836  0.08855066  0.42649501    -0.23700
F3436       F  0.29588421  0.11830470  0.42834452    -0.21000
F3437       F  0.29807594  0.09323607  0.39876695    -0.20700
F3438       F  0.20373511  0.17318271  0.37484413    -0.20700
F3439       F  0.20593548  0.14734826  0.34603343    -0.21000
F3440       F  0.22975771  0.17722632  0.34696124    -0.23700
C3441       C  0.11408767  0.23913787  0.49905707    -0.06600
C3442       C  0.13300333  0.22415110  0.49915771    -0.00600
C3443       C  0.15205648  0.22929817  0.51300167    -0.09200
C3444       C  0.14944929  0.24606543  0.52996893    -0.06600
C3445       C  0.12911215  0.25876518  0.53225829    -0.00600
C3446       C  0.11187795  0.25682814  0.51527640    -0.09100
C3447       C  0.09054874  0.27190831  0.51514258     0.61300
H3448       H  0.09996980  0.23561862  0.48749107     0.12000
H3449       H  0.16324726  0.24863434  0.54225766     0.12000
C3450       C  0.17508916  0.21746253  0.51065418     0.61500
F3451       F  0.07691233  0.26764234  0.49623919    -0.23700
F3452       F  0.09674723  0.29476136  0.51430278    -0.21000
F3453       F  0.07761129  0.26790016  0.53466036    -0.20700
F3454       F  0.17710877  0.20549654  0.49023715    -0.20700
F3455       F  0.17824744  0.20253614  0.52884133    -0.21000
F3456       F  0.19223898  0.23373038  0.51098592    -0.23700
C3457       C  0.22284744  0.15357544  0.51525082    -0.06600
C3458       C  0.22192882  0.13410050  0.50115944    -0.00600
C3459       C  0.24079905  0.11851724  0.50076755    -0.09200
C3460       C  0.25763180  0.12082192  0.51775182    -0.06600
C3461       C  0.25631880  0.13843495  0.53408016    -0.00600
C3462       C  0.24058420  0.15658515  0.53093493    -0.09100
C3463       C  0.24151052  0.17862601  0.54462508     0.61300
H3464       H  0.20921595  0.16630644  0.51445471     0.12000
H3465       H  0.27070569  0.10766869  0.51964311     0.12000
C3466       C  0.24282642  0.09894831  0.48363242     0.61500
F3467       F  0.23497954  0.19698390  0.53098917    -0.23700
F3468       F  0.26348544  0.18282609  0.55229879    -0.21000
F3469       F  0.22679001  0.17725116  0.56319670    -0.20700
F3470       F  0.24211432  0.10767704  0.46154997    -0.20700
F3471       F  0.22519149  0.08356094  0.48682652    -0.21000
F3472       F  0.26326230  0.08699791  0.48593489    -0.23700
C3473       C  0.02085420  0.10809656  0.50954226    -0.06600
C3474       C  0.03357801  0.12824365  0.50729685    -0.00600
C3475       C  0.02697642  0.14836228  0.51922055    -0.09200
C3476       C  0.00874429  0.14705719  0.53477416    -0.06600
C3477       C  0.99703172  0.12650265  0.53828993    -0.00600
C3478       C  0.00207982  0.10708920  0.52463513    -0.09100
C3479       C  0.98833535  0.08526728  0.52640455     0.61300
H3480       H  0.02601278  0.09307161  0.49988526     0.12000
H3481       H  0.00414049  0.16180592  0.54511928     0.12000
C3482       C  0.03957616  0.17088262  0.51607630     0.61500
F3483       F  0.99079549  0.07200210  0.50681002    -0.23700
F3484       F  0.96533357  0.09027754  0.52917408    -0.21000
F3485       F  0.99580594  0.07271675  0.54498537    -0.20700
F3486       F  0.03711953  0.17840252  0.49368378    -0.20700
F3487       F  0.06257032  0.16788708  0.52083324    -0.21000
F3488       F  0.03114138  0.18786587  0.53047001    -0.23700
C3489       C  0.10250505  0.03576392  0.52338780    -0.06600
C3490       C  0.12057637  0.03471815  0.50752528    -0.00600
C3491       C  0.13541602  0.01529416  0.50738175    -0.09200
C3492       C  0.13336973  0.99931730  0.52536228    -0.06600
C3493       C  0.11718901  0.00226419  0.54303975    -0.00600
C3494       C  0.10026717  0.01964093  0.54102010    -0.09100
C3495       C  0.08043238  0.02217123  0.55775867     0.61300
H3496       H  0.09068681  0.05014676  0.52269734     0.12000
H3497       H  0.14554295  0.98529076  0.52660311     0.12000
C3498       C  0.15403629  0.01181019  0.48936724     0.61500
F3499       F  0.06274111  0.03488544  0.54825041    -0.23700
F3500       F  0.08766801  0.03330007  0.57737317    -0.21000
F3501       F  0.07180744  0.00086040  0.56346954    -0.20700
F3502       F  0.16977831  0.02937794  0.49055943    -0.20700
F3503       F  0.14434942  0.01130559  0.46772704    -0.21000
F3504       F  0.16578206  0.99132172  0.49244385    -0.23700
C3505       C  0.88368536  0.76365095  0.60772662    -0.06600
C3506       C  0.87409520  0.77995306  0.62316145    -0.00600
C3507       C  0.86276456  0.77164603  0.64300027    -0.09200
C3508       C  0.86106638  0.74769384  0.64618238    -0.06600
C3509       C  0.86914008  0.73149376  0.62990623    -0.00600
C3510       C  0.88112958  0.73969760  0.61049688    -0.09100
C3511       C  0.89017492  0.72350717  0.59220232     0.61300
H3512       H  0.89272047  0.76978621  0.59269803     0.12000
H3513       H  0.85226754  0.74137704  0.66127799     0.12000
C3514       C  0.85162254  0.78764679  0.66036796     0.61500
F3515       F  0.90083082  0.73508232  0.57438275    -0.23700
F3516       F  0.87223805  0.71125030  0.58308433    -0.21000
F3517       F  0.90594237  0.70853877  0.60174914    -0.20700
F3518       F  0.83442327  0.80013214  0.64979815    -0.20700
F3519       F  0.86774875  0.80237589  0.66930218    -0.21000
F3520       F  0.84192403  0.77582079  0.67855829    -0.23700
C3521       C  0.75656747  0.88818778  0.62931502    -0.06600
C3522       C  0.77147349  0.86896483  0.62991842    -0.00600
C3523       C  0.76173927  0.84689351  0.63144665    -0.09200
C3524       C  0.73763510  0.84499504  0.63290025    -0.06600
C3525       C  0.72268468  0.86427206  0.63211477    -0.00600
C3526       C  0.73245187  0.88628373  0.63006957    -0.09100
C3527       C  0.71765215  0.90768787  0.62884171     0.61300
H3528       H  0.76412064  0.90499711  0.62738667     0.12000
H3529       H  0.73020774  0.82810185  0.63439804     0.12000
C3530       C  0.77660302  0.82546385  0.63077408     0.61500
F3531       F  0.73062690  0.92737041  0.62671469    -0.23700
F3532       F  0.70459639  0.90956881  0.64860979    -0.21000
F3533       F  0.70343300  0.90646973  0.60995820    -0.20700
F3534       F  0.79141851  0.82557227  0.64921530    -0.20700
F3535       F  0.78911408  0.82488774  0.61056849    -0.21000
F3536       F  0.76372647  0.80561820  0.63193191    -0.23700
C3537       C  0.98859573  0.88235377  0.60544658    -0.06600
C3538       C  0.97260150  0.88649280  0.62345111    -0.00600
C3539       C  0.98137282  0.89133666  0.64552980    -0.09200
C3540       C  0.00548152  0.89152565  0.64868250    -0.06600
C3541       C  0.02129847  0.88709400  0.63064367    -0.00600
C3542       C  0.01256223  0.88264384  0.60858851    -0.09100
C3543       C  0.02841360  0.87898187  0.58821149     0.61300
H3544       H  0.98223050  0.87892907  0.58842812     0.12000
H3545       H  0.01227681  0.89562439  0.66543678     0.12000
C3546       C  0.96554286  0.89624077  0.66563318     0.61500
F3547       F  0.01643141  0.87695374  0.56789466    -0.23700
F3548       F  0.04103427  0.85909201  0.59143235    -0.21000
F3549       F  0.04307359  0.89738154  0.58592469    -0.20700
F3550       F  0.95196854  0.87733533  0.66980096    -0.20700
F3551       F  0.95182654  0.91503164  0.66069852    -0.21000
F3552       F  0.97753058  0.90103875  0.68550188    -0.23700
C3553       C  0.87299435  0.99580365  0.60525564    -0.06600
C3554       C  0.87399826  0.98125417  0.62473820    -0.00600
C3555       C  0.87715687  0.99138752  0.64653269    -0.09200
C3556       C  0.87945957  0.01551836  0.64792670    -0.06600
C3557       C  0.87837610  0.02998848  0.62844162    -0.00600
C3558       C  0.87507821  0.01989074  0.60667673    -0.09100
C3559       C  0.87438286  0.03433392  0.58499140     0.61300
H3560       H  0.87050338  0.98805485  0.58855417     0.12000
H3561       H  0.88254315  0.02338597  0.66447407     0.12000
C3562       C  0.87764398  0.97698613  0.66820652     0.61500
F3563       F  0.87116211  0.02108491  0.56553389    -0.23700
F3564       F  0.89474794  0.04602084  0.58243667    -0.21000
F3565       F  0.85651525  0.04993467  0.58642048    -0.20700
F3566       F  0.89599167  0.96191054  0.66737323    -0.20700
F3567       F  0.85754498  0.96473936  0.67013263    -0.21000
F3568       F  0.87984184  0.99036996  0.68770873    -0.23700
C3569       C  0.88378168  0.10286470  0.26598058    -0.06600
C3570       C  0.87207071  0.11651109  0.28249938    -0.00600
C3571       C  0.85834011  0.13489768  0.27443570    -0.09200
C3572       C  0.85596289  0.13804340  0.25048869    -0.06600
C3573       C  0.86668115  0.12367241  0.23395191    -0.00600
C3574       C  0.88157897  0.10622719  0.24198814    -0.09100
C3575       C  0.89500998  0.09112380  0.22553749     0.61300
H3576       H  0.89482401  0.08917643  0.27197342     0.12000
H3577       H  0.84514126  0.15190297  0.24450633     0.12000
C3578       C  0.84585993  0.15101798  0.29076328     0.61500
F3579       F  0.90850578  0.07517139  0.23691896    -0.23700
F3580       F  0.90922599  0.10459786  0.21220558    -0.21000
F3581       F  0.88010597  0.07932717  0.21159732    -0.20700
F3582       F  0.86146859  0.16181579  0.30482039    -0.20700
F3583       F  0.83047752  0.13876444  0.30397907    -0.21000
F3584       F  0.83375016  0.16792889  0.27921841    -0.23700
C3585       C  0.75857976  0.10245393  0.38000656    -0.06600
C3586       C  0.77422391  0.12069412  0.37677475    -0.00600
C3587       C  0.76527980  0.14280041  0.37206177    -0.09200
C3588       C  0.74121526  0.14598517  0.37228380    -0.06600
C3589       C  0.72568586  0.12774180  0.37588403    -0.00600
C3590       C  0.73461963  0.10546584  0.37913851    -0.09100
C3591       C  0.71903369  0.08478018  0.38028831     0.61300
H3592       H  0.76531274  0.08540500  0.38295687     0.12000
H3593       H  0.73421430  0.16284667  0.36871287     0.12000
C3594       C  0.78078203  0.16272334  0.36612855     0.61500
F3595       F  0.70650851  0.08332786  0.36022019    -0.23700
F3596       F  0.70427149  0.08689264  0.39877604    -0.21000
F3597       F  0.73120852  0.06448439  0.38282864    -0.20700
F3598       F  0.79265199  0.15773495  0.34612531    -0.20700
F3599       F  0.79611710  0.16649957  0.38371728    -0.21000
F3600       F  0.76853308  0.18284676  0.36261834    -0.23700
C3601       C  0.99246961  0.10618946  0.37261076    -0.06600
C3602       C  0.97632235  0.12102850  0.38348051    -0.00600
C3603       C  0.98494643  0.13960215  0.39636465    -0.09200
C3604       C  0.00898418  0.14174258  0.39890279    -0.06600
C3605       C  0.02497911  0.12602441  0.38917232    -0.00600
C3606       C  0.01642276  0.10818449  0.37533906    -0.09100
C3607       C  0.03230488  0.09064248  0.36434209     0.61300
H3608       H  0.98623066  0.09226885  0.36219870     0.12000
H3609       H  0.01545567  0.15569908  0.40909325     0.12000
C3610       C  0.96906548  0.15701644  0.40754541     0.61500
F3611       F  0.02050659  0.07432756  0.35192137    -0.23700
F3612       F  0.04456541  0.07937891  0.38125153    -0.21000
F3613       F  0.04721111  0.10152027  0.34946723    -0.20700
F3614       F  0.95495476  0.14619888  0.42322876    -0.20700
F3615       F  0.95593047  0.16762381  0.39085573    -0.21000
F3616       F  0.98097723  0.17386262  0.41911892    -0.23700
C3617       C  0.86298551  0.13987155  0.49621884    -0.06600
C3618       C  0.87953981  0.12801383  0.48306420    -0.00600
C3619       C  0.89688457  0.11556704  0.49462785    -0.09200
C3620       C  0.89695355  0.11506076  0.51882939    -0.06600
C3621       C  0.88054178  0.12694666  0.53203014    -0.00600
C3622       C  0.86383132  0.14036284  0.52054919    -0.09100
C3623       C  0.84804676  0.15619078  0.53397990     0.61300
H3624       H  0.84930840  0.14871690  0.48724670     0.12000
H3625       H  0.91043181  0.10586917  0.52775985     0.12000
C3626       C  0.91511407  0.10256891  0.48122519     0.61500
F3627       F  0.83194959  0.16662835  0.51998267    -0.23700
F3628       F  0.86085055  0.17317046  0.54429981    -0.21000
F3629       F  0.83661001  0.14394691  0.55076951    -0.20700
F3630       F  0.92505332  0.11706532  0.46529228    -0.20700
F3631       F  0.90541672  0.08420408  0.46992807    -0.21000
F3632       F  0.93221254  0.09422127  0.49537716    -0.23700
C3633       C  0.88850356  0.98753580  0.51361849    -0.06600
C3634       C  0.86638441  0.98083367  0.51989969    -0.00600
C3635       C  0.84725335  0.99411223  0.51293948    -0.09200
C3636       C  0.85077721  0.01133112  0.49649306    -0.06600
C3637       C  0.87269711  0.01571452  0.48771215    -0.00600
C3638       C  0.89201834  0.00550276  0.49806485    -0.09100
C3639       C  0.91631710  0.01342408  0.49393671     0.61300
H3640       H  0.90312732  0.97813364  0.52030550     0.12000
H3641       H  0.83622426  0.02018313  0.48902642     0.12000
C3642       C  0.82321464  0.98926373  0.52161649     0.61500
F3643       F  0.92504624  0.02156155  0.51440661    -0.23700
F3644       F  0.91777725  0.03086416  0.47790154    -0.21000
F3645       F  0.92963065  0.99516007  0.48658224    -0.20700
F3646       F  0.82253413  0.99167856  0.54524353    -0.20700
F3647       F  0.81692014  0.96719677  0.51579113    -0.21000
F3648       F  0.80725573  0.00429778  0.51237702    -0.23700
C3649       C  0.11289290  0.88878732  0.26873542    -0.06600
C3650       C  0.11466562  0.87035748  0.28449216    -0.00600
C3651       C  0.11955817  0.84824838  0.27586380    -0.09200
C3652       C  0.12135713  0.84516973  0.25185075    -0.06600
C3653       C  0.11904818  0.86344196  0.23589923    -0.00600
C3654       C  0.11547075  0.88584801  0.24466713    -0.09100
C3655       C  0.11489019  0.90660599  0.22895174     0.61300
H3656       H  0.10908613  0.90565881  0.27549681     0.12000
H3657       H  0.12451214  0.82809588  0.24536447     0.12000
C3658       C  0.12230430  0.82785448  0.29185904     0.61500
F3659       F  0.11327334  0.92692070  0.24118958    -0.23700
F3660       F  0.09620332  0.90534145  0.21453480    -0.21000
F3661       F  0.13474959  0.90732891  0.21597248    -0.20700
F3662       F  0.10261107  0.82501564  0.30476088    -0.20700
F3663       F  0.14058776  0.83156391  0.30636786    -0.21000
F3664       F  0.12645188  0.80767243  0.27996911    -0.23700
C3665       C  0.13023551  0.74284512  0.37160924    -0.06600
C3666       C  0.11272784  0.72688227  0.37649810    -0.00600
C3667       C  0.09130415  0.73544058  0.38403118    -0.09200
C3668       C  0.08837543  0.75943361  0.38679337    -0.06600
C3669       C  0.10575483  0.77549462  0.38146264    -0.00600
C3670       C  0.12706276  0.76690081  0.37349714    -0.09100
C3671       C  0.14621273  0.78287268  0.36637201     0.61300
H3672       H  0.14644098  0.73626139  0.36538835     0.12000
H3673       H  0.07200368  0.76583166  0.39267154     0.12000
C3674       C  0.07124213  0.71950493  0.38791063     0.61500
F3675       F  0.15171536  0.79731618  0.38433008    -0.23700
F3676       F  0.13926353  0.79572645  0.34762687    -0.21000
F3677       F  0.16586387  0.77097858  0.36020458    -0.20700
F3678       F  0.07633524  0.70425373  0.40538546    -0.20700
F3679       F  0.06682946  0.70745925  0.36796311    -0.21000
F3680       F  0.05151044  0.73135804  0.39396416    -0.23700
C3681       C  0.10343124  0.99355709  0.37144246    -0.06600
C3682       C  0.11615361  0.97675088  0.38370145    -0.00600
C3683       C  0.13417097  0.98437528  0.39787953    -0.09200
C3684       C  0.13721165  0.00830646  0.40078796    -0.06600
C3685       C  0.12332625  0.02507940  0.38973723    -0.00600
C3686       C  0.10666003  0.01738224  0.37407331    -0.09100
C3687       C  0.09181944  0.03399842  0.36057554     0.61300
H3688       H  0.09027592  0.98796017  0.35977588     0.12000
H3689       H  0.15056785  0.01407583  0.41215865     0.12000
C3690       C  0.15030922  0.96762646  0.40966822     0.61500
F3691       F  0.07691320  0.02283586  0.34599944    -0.23700
F3692       F  0.10549824  0.04800367  0.34724920    -0.21000
F3693       F  0.07894057  0.04717941  0.37557775    -0.20700
F3694       F  0.16097537  0.95401496  0.39331946    -0.20700
F3695       F  0.13829922  0.95395182  0.42484427    -0.21000
F3696       F  0.16717467  0.97876585  0.42193501    -0.23700
C3697       C  0.98704786  0.01222776  0.38054242    -0.06600
C3698       C  0.97060754  0.01058761  0.39813883    -0.00600
C3699       C  0.97390952  0.99433511  0.41580518    -0.09200
C3700       C  0.98979613  0.97662931  0.41219974    -0.06600
C3701       C  0.00358603  0.97589631  0.39241294    -0.00600
C3702       C  0.00387401  0.99514071  0.37743679    -0.09100
C3703       C  0.02040925  0.99698066  0.35734829     0.61300
H3704       H  0.98527215  0.02572881  0.36781037     0.12000
H3705       H  0.99075050  0.96268837  0.42458281     0.12000
C3706       C  0.96044201  0.99453479  0.43803714     0.61500
F3707       F  0.01855740  0.01793454  0.34625050    -0.23700
F3708       F  0.01600224  0.97994049  0.34148273    -0.21000
F3709       F  0.04262952  0.99486065  0.36518708    -0.20700
F3710       F  0.94363192  0.97800092  0.43711128    -0.20700
F3711       F  0.95049361  0.01572691  0.44224326    -0.21000
F3712       F  0.97491722  0.98974452  0.45621188    -0.23700
C3713       C  0.11162256  0.86238107  0.50073178    -0.06600
C3714       C  0.11520034  0.88054764  0.48496854    -0.00600
C3715       C  0.12180626  0.90207055  0.49361514    -0.09200
C3716       C  0.12343883  0.90499109  0.51758139    -0.06600
C3717       C  0.11955927  0.88704621  0.53355046    -0.00600
C3718       C  0.11421439  0.86504840  0.52482132    -0.09100
C3719       C  0.11196717  0.84442062  0.54056537     0.61300
H3720       H  0.10645813  0.84590065  0.49392016     0.12000
H3721       H  0.12773965  0.92182897  0.52400969     0.12000
C3722       C  0.12652894  0.92210014  0.47768037     0.61500
F3723       F  0.10774040  0.82448252  0.52842736    -0.23700
F3724       F  0.09408430  0.84777628  0.55582457    -0.21000
F3725       F  0.13210542  0.84130758  0.55263515    -0.20700
F3726       F  0.13259231  0.94167569  0.48960595    -0.20700
F3727       F  0.10723481  0.92714407  0.46490512    -0.21000
F3728       F  0.14439807  0.91642735  0.46308567    -0.23700
C3729       C  0.98008031  0.88453072  0.51480374    -0.06600
C3730       C  0.96108626  0.89876345  0.51043495    -0.00600
C3731       C  0.96206374  0.91432353  0.49182837    -0.09200
C3732       C  0.97954433  0.91147042  0.47556079    -0.06600
C3733       C  0.99653021  0.89446111  0.47794048    -0.00600
C3734       C  0.99806095  0.88209724  0.49893832    -0.09100
C3735       C  0.01756016  0.86553166  0.50421534     0.61300
H3736       H  0.97990606  0.87354910  0.53019169     0.12000
H3737       H  0.97921058  0.92195736  0.46003688     0.12000
C3738       C  0.94435711  0.93305953  0.48808429     0.61500
F3739       F  0.01640340  0.85722828  0.52644877    -0.23700
F3740       F  0.03828138  0.87663320  0.50178653    -0.21000
F3741       F  0.01675405  0.84686503  0.48961078    -0.20700
F3742       F  0.93662588  0.94176769  0.50883187    -0.20700
F3743       F  0.92615482  0.92444861  0.47576645    -0.21000
F3744       F  0.95372434  0.95107905  0.47588517    -0.23700
C3745       C  0.74942937  0.85882884  0.48749605    -0.06600
C3746       C  0.74169175  0.88091738  0.48209435    -0.00600
C3747       C  0.74759217  0.89977915  0.49611858    -0.09200
C3748       C  0.76325253  0.89601245  0.51382430    -0.06600
C3749       C  0.77334262  0.87440652  0.51724222    -0.00600
C3750       C  0.76496775  0.85515367  0.50532444    -0.09100
C3751       C  0.77146486  0.83064427  0.51066372     0.61300
H3752       H  0.74392096  0.84446900  0.47721023     0.12000
H3753       H  0.76934456  0.91038953  0.52371046     0.12000
C3754       C  0.73914627  0.92404853  0.49138073     0.61500
F3755       F  0.75194352  0.81847350  0.51611523    -0.23700
F3756       F  0.78634978  0.82888689  0.52894779    -0.21000
F3757       F  0.78133526  0.82092336  0.49141371    -0.20700
F3758       F  0.71566803  0.92512777  0.49417148    -0.20700
F3759       F  0.74485696  0.93038637  0.46920257    -0.21000
F3760       F  0.74875623  0.93986430  0.50618153    -0.23700
C3761       C  0.65162761  0.87550811  0.50171018    -0.06600
C3762       C  0.63282625  0.87509945  0.48645143    -0.00600
C3763       C  0.61057003  0.87291563  0.49571830    -0.09200
C3764       C  0.60800337  0.87110073  0.51985974    -0.06600
C3765       C  0.62685363  0.87171009  0.53501910    -0.00600
C3766       C  0.64904584  0.87380998  0.52574117    -0.09100
C3767       C  0.66995650  0.87342742  0.54112169     0.61300
H3768       H  0.66863049  0.87718372  0.49461364     0.12000
H3769       H  0.59114689  0.86867119  0.52714592     0.12000
C3770       C  0.58970996  0.87285201  0.48031435     0.61500
F3771       F  0.69010723  0.87493360  0.52865163    -0.23700
F3772       F  0.67059872  0.85320472  0.55357960    -0.21000
F3773       F  0.66895720  0.89180709  0.55609852    -0.20700
F3774       F  0.59077255  0.85417027  0.46571010    -0.20700
F3775       F  0.58898942  0.89283655  0.46748484    -0.21000
F3776       F  0.56957695  0.87148746  0.49281749    -0.23700
C3777       C  0.63363784  0.76490617  0.37192733    -0.06600
C3778       C  0.63028576  0.78050927  0.39027547    -0.00600
C3779       C  0.62408442  0.77166582  0.41196168    -0.09200
C3780       C  0.62197291  0.74768475  0.41462612    -0.06600
C3781       C  0.62554351  0.73185407  0.39643002    -0.00600
C3782       C  0.63108617  0.74081347  0.37447389    -0.09100
C3783       C  0.63402875  0.72526878  0.35379035     0.61300
H3784       H  0.63866475  0.77183299  0.35540801     0.12000
H3785       H  0.61764928  0.74113133  0.43146956     0.12000
C3786       C  0.62051843  0.78737612  0.43246403     0.61500
F3787       F  0.63802749  0.73761030  0.33385654    -0.23700
F3788       F  0.61437520  0.71258606  0.35061513    -0.21000
F3789       F  0.65241451  0.71061525  0.35718321    -0.20700
F3790       F  0.60257398  0.80231492  0.42810080    -0.20700
F3791       F  0.64018755  0.79978798  0.43648037    -0.21000
F3792       F  0.61534766  0.77526927  0.45226605    -0.23700
C3793       C  0.63331757  0.99701683  0.39810272    -0.06600
C3794       C  0.62766693  0.98133414  0.38047506    -0.00600
C3795       C  0.62086493  0.99013238  0.35901626    -0.09200
C3796       C  0.62040519  0.01414899  0.35586817    -0.06600
C3797       C  0.62686097  0.02998711  0.37322263    -0.00600
C3798       C  0.63353980  0.02106605  0.39479884    -0.09100
C3799       C  0.64145869  0.03650755  0.41409275     0.61300
H3800       H  0.63867537  0.99010241  0.41447773     0.12000
H3801       H  0.61535347  0.02063397  0.33924810     0.12000
C3802       C  0.61512307  0.97431241  0.33923256     0.61500
F3803       F  0.62415120  0.05167305  0.42004780    -0.23700
F3804       F  0.66053540  0.04856550  0.40703665    -0.21000
F3805       F  0.64735963  0.02414469  0.43354686    -0.20700
F3806       F  0.59655957  0.96092932  0.34514231    -0.20700
F3807       F  0.63373877  0.96034912  0.33439346    -0.21000
F3808       F  0.60964918  0.98632172  0.31943895    -0.23700
C3809       C  0.74489313  0.99262434  0.40173871    -0.06600
C3810       C  0.74481934  0.97754337  0.38296098    -0.00600
C3811       C  0.76038471  0.98096130  0.36468465    -0.09200
C3812       C  0.77819097  0.99647876  0.36759335    -0.06600
C3813       C  0.78015197  0.00938789  0.38764847    -0.00600
C3814       C  0.76250039  0.00873981  0.40449043    -0.09100
C3815       C  0.76306019  0.02348198  0.42601599     0.61300
H3816       H  0.73231100  0.99031509  0.41521161     0.12000
H3817       H  0.79147692  0.99767212  0.35459810     0.12000
C3818       C  0.76030013  0.96632715  0.34337405     0.61500
F3819       F  0.74443459  0.01950497  0.44019832    -0.23700
F3820       F  0.76262353  0.04645299  0.42004507    -0.21000
F3821       F  0.78269390  0.01872428  0.43839604    -0.20700
F3822       F  0.73811502  0.96130869  0.33696629    -0.20700
F3823       F  0.77227300  0.94635981  0.34802512    -0.21000
F3824       F  0.77068936  0.97744447  0.32512216    -0.23700
C3825       C  0.64366566  0.87046480  0.26848658    -0.06600
C3826       C  0.63162035  0.88357108  0.28514759    -0.00600
C3827       C  0.61552701  0.90001074  0.27727016    -0.09200
C3828       C  0.61283843  0.90320157  0.25332866    -0.06600
C3829       C  0.62559822  0.89075680  0.23666898    -0.00600
C3830       C  0.64114762  0.87379572  0.24456805    -0.09100
C3831       C  0.65552904  0.85957530  0.22809920     0.61300
H3832       H  0.65562409  0.85752589  0.27433536     0.12000
H3833       H  0.60069640  0.91596438  0.24748618     0.12000
C3834       C  0.60157175  0.91457635  0.29380514     0.61500
F3835       F  0.67024434  0.84473011  0.23945639    -0.23700
F3836       F  0.66866398  0.87394189  0.21464830    -0.21000
F3837       F  0.64142721  0.84657198  0.21431890    -0.20700
F3838       F  0.61608415  0.92746768  0.30718664    -0.20700
F3839       F  0.58841688  0.90059745  0.30768831    -0.21000
F3840       F  0.58694880  0.92955117  0.28250228    -0.23700
C3841       C  0.75278944  0.65360368  0.37270434    -0.06600
C3842       C  0.76937746  0.64026967  0.38461211    -0.00600
C3843       C  0.76157539  0.62175441  0.39816114    -0.09200
C3844       C  0.73773316  0.61864365  0.40072856    -0.06600
C3845       C  0.72110861  0.63282142  0.38985127    -0.00600
C3846       C  0.72895881  0.65005009  0.37474823    -0.09100
C3847       C  0.71250160  0.66452427  0.36069148     0.61300
H3848       H  0.75859946  0.66724110  0.36150689     0.12000
H3849       H  0.73192286  0.60479886  0.41165700     0.12000
C3850       C  0.77807307  0.60514841  0.40968019     0.61500
F3851       F  0.72381598  0.67992763  0.34661967    -0.23700
F3852       F  0.69819917  0.67693000  0.37508020    -0.21000
F3853       F  0.69962826  0.65036135  0.34682703    -0.20700
F3854       F  0.79161183  0.61671366  0.42521455    -0.20700
F3855       F  0.79174015  0.59479748  0.39317795    -0.21000
F3856       F  0.76677848  0.58795809  0.42149536    -0.23700
C3857       C  0.78145157  0.77179117  0.41049162    -0.06600
C3858       C  0.77986209  0.75549954  0.39278244    -0.00600
C3859       C  0.75901951  0.75361233  0.38041868    -0.09200
C3860       C  0.74256697  0.77107619  0.38312974    -0.06600
C3861       C  0.74598314  0.78937403  0.39836444    -0.00600
C3862       C  0.76411323  0.78807275  0.41428226    -0.09100
C3863       C  0.76579223  0.80318237  0.43538089     0.61300
H3864       H  0.79645935  0.77206271  0.42125197     0.12000
H3865       H  0.72783743  0.77144659  0.37204496     0.12000
C3866       C  0.75422992  0.73421214  0.36370379     0.61500
F3867       F  0.77110294  0.78973274  0.45425218    -0.23700
F3868       F  0.74540786  0.81437851  0.44025316    -0.21000
F3869       F  0.78288760  0.81916547  0.43224059    -0.20700
F3870       F  0.75679311  0.71335960  0.37480676    -0.20700
F3871       F  0.76901430  0.73534545  0.34514832    -0.21000
F3872       F  0.73211554  0.73521933  0.35528136    -0.23700
C3873       C  0.85177581  0.77031029  0.47669066    -0.06600
C3874       C  0.87193852  0.75770841  0.47330384    -0.00600
C3875       C  0.89069556  0.76059654  0.48843267    -0.09200
C3876       C  0.88893555  0.77743072  0.50557498    -0.06600
C3877       C  0.86945319  0.79145009  0.50750998    -0.00600
C3878       C  0.84996997  0.78672947  0.49407433    -0.09100
C3879       C  0.82717795  0.79876665  0.49697677     0.61300
H3880       H  0.83735834  0.76757251  0.46533534     0.12000
H3881       H  0.90352371  0.78103052  0.51637797     0.12000
C3882       C  0.91316128  0.74762923  0.48535525     0.61500
F3883       F  0.82396506  0.81360061  0.47869863    -0.23700
F3884       F  0.82562494  0.81082673  0.51732415    -0.21000
F3885       F  0.80985319  0.78270075  0.49716729    -0.20700
F3886       F  0.92183596  0.75166618  0.46358406    -0.20700
F3887       F  0.90971169  0.72437360  0.48836900    -0.21000
F3888       F  0.92947465  0.75439682  0.50109481    -0.23700
C3889       C  0.86895461  0.66028254  0.49978211    -0.06600
C3890       C  0.86556514  0.64207174  0.48403623    -0.00600
C3891       C  0.86086705  0.62003174  0.49309534    -0.09200
C3892       C  0.85937544  0.61728244  0.51726193    -0.06600
C3893       C  0.86285676  0.63551949  0.53286227    -0.00600
C3894       C  0.86783968  0.65742701  0.52386110    -0.09100
C3895       C  0.87119795  0.67790618  0.53948575     0.61300
H3896       H  0.87249298  0.67719103  0.49305831     0.12000
H3897       H  0.85518309  0.60062521  0.52427844     0.12000
C3898       C  0.85786796  0.59940299  0.47759753     0.61500
F3899       F  0.87540374  0.69784649  0.52725413    -0.23700
F3900       F  0.88968812  0.67388554  0.55371139    -0.21000
F3901       F  0.85172411  0.68138632  0.55262368    -0.20700
F3902       F  0.87714360  0.59651267  0.46403805    -0.20700
F3903       F  0.83893516  0.60264017  0.46377108    -0.21000
F3904       F  0.85471920  0.57940040  0.49004723    -0.23700
C3905       C  0.98674472  0.64480701  0.39467928    -0.06600
C3906       C  0.97027917  0.63386400  0.38065540    -0.00600
C3907       C  0.97822102  0.61776210  0.36432045    -0.09200
C3908       C  0.00215126  0.61488976  0.36124960    -0.06600
C3909       C  0.01867108  0.62697322  0.37435128    -0.00600
C3910       C  0.01060162  0.64150768  0.39207192    -0.09100
C3911       C  0.02688384  0.65360738  0.40818873     0.61300
H3912       H  0.98079091  0.65649759  0.40785959     0.12000
H3913       H  0.00806744  0.60307639  0.34818220     0.12000
C3914       C  0.96166466  0.60370049  0.35022205     0.61500
F3915       F  0.01540049  0.66608553  0.42490261    -0.23700
F3916       F  0.04044911  0.66862217  0.39589475    -0.21000
F3917       F  0.04049148  0.63754029  0.41921438    -0.20700
F3918       F  0.94825501  0.61804763  0.33689090    -0.20700
F3919       F  0.94784265  0.59109133  0.36479078    -0.21000
F3920       F  0.97287080  0.58848719  0.33573486    -0.23700
C3921       C  0.96362433  0.76628217  0.39909535    -0.06600
C3922       C  0.96516793  0.75179467  0.38003097    -0.00600
C3923       C  0.98331122  0.75375265  0.36416935    -0.09200
C3924       C  0.99814028  0.77241950  0.36646600    -0.06600
C3925       C  0.99531276  0.78795696  0.38459579    -0.00600
C3926       C  0.97877103  0.78434772  0.40189539    -0.09100
C3927       C  0.97691791  0.79972079  0.42293813     0.61300
H3928       H  0.94982525  0.76381047  0.41133536     0.12000
H3929       H  0.01162828  0.77528995  0.35401371     0.12000
C3930       C  0.98693018  0.73618043  0.34536658     0.61500
F3931       F  0.95979715  0.79264762  0.43778180    -0.23700
F3932       F  0.97208991  0.82202655  0.41636094    -0.21000
F3933       F  0.99735227  0.79923101  0.43483746    -0.20700
F3934       F  0.96824531  0.73598700  0.33096540    -0.20700
F3935       F  0.98961066  0.71467668  0.35511217    -0.21000
F3936       F  0.00622302  0.74083820  0.33234606    -0.23700
C3937       C  0.90010592  0.63048621  0.24991480    -0.06600
C3938       C  0.88271364  0.63529007  0.23357611    -0.00600
C3939       C  0.86093700  0.64212459  0.24186195    -0.09200
C3940       C  0.85744444  0.64362372  0.26589642    -0.06600
C3941       C  0.87474445  0.63840591  0.28207754    -0.00600
C3942       C  0.89650100  0.63171968  0.27387783    -0.09100
C3943       C  0.91589709  0.62624197  0.29030178     0.61300
H3944       H  0.91692847  0.62546147  0.24377945     0.12000
H3945       H  0.84088737  0.64917587  0.27236083     0.12000
C3946       C  0.84138143  0.64745462  0.22564134     0.61500
F3947       F  0.93616606  0.62152588  0.27886875    -0.23700
F3948       F  0.91023789  0.60719856  0.30326480    -0.21000
F3949       F  0.91968370  0.64468886  0.30469319    -0.20700
F3950       F  0.83650408  0.62823020  0.21269516    -0.20700
F3951       F  0.84735447  0.66535224  0.21125942    -0.21000
F3952       F  0.82167320  0.65383907  0.23733062    -0.23700
C3953       C  0.87276757  0.99456404  0.16483012    -0.06600
C3954       C  0.86827244  0.97808207  0.14756297    -0.00600
C3955       C  0.86093010  0.98610025  0.12578123    -0.09200
C3956       C  0.85902750  0.01006506  0.12211974    -0.06600
C3957       C  0.86372828  0.02639616  0.13939354    -0.00600
C3958       C  0.87023941  0.01840058  0.16129740    -0.09100
C3959       C  0.87336789  0.03482880  0.18117974     0.61300
H3960       H  0.87798503  0.98864463  0.18165204     0.12000
H3961       H  0.85340156  0.01633758  0.10553482     0.12000
C3962       C  0.85515715  0.96973402  0.10642925     0.61500
F3963       F  0.87809342  0.02345686  0.20152160    -0.23700
F3964       F  0.85353568  0.04755713  0.18439896    -0.21000
F3965       F  0.89137466  0.04935210  0.17645748    -0.20700
F3966       F  0.83762015  0.95539749  0.11319717    -0.20700
F3967       F  0.87427450  0.95680272  0.10074131    -0.21000
F3968       F  0.84801687  0.98124489  0.08687768    -0.23700
C3969       C  0.99068537  0.88871562  0.15034956    -0.06600
C3970       C  0.97414911  0.87299030  0.14236692    -0.00600
C3971       C  0.98203755  0.85319606  0.13065045    -0.09200
C3972       C  0.00589928  0.84974754  0.12786219    -0.06600
C3973       C  0.02254980  0.86498516  0.13672270    -0.00600
C3974       C  0.01458804  0.88509190  0.14792020    -0.09100
C3975       C  0.03103183  0.90251638  0.15770843     0.61300
H3976       H  0.98467327  0.90391930  0.15926605     0.12000
H3977       H  0.01168424  0.83438595  0.11909120     0.12000
C3978       C  0.96554088  0.83503215  0.12241646     0.61500
F3979       F  0.01972002  0.92148438  0.16660545    -0.23700
F3980       F  0.04566096  0.91014976  0.14065863    -0.21000
F3981       F  0.04354092  0.89251454  0.17522998    -0.20700
F3982       F  0.95043145  0.84443829  0.10673840    -0.20700
F3983       F  0.95357792  0.82651760  0.14105111    -0.21000
F3984       F  0.97667427  0.81684063  0.11181032    -0.23700
C3985       C  0.87700629  0.98327215  0.26223871    -0.06600
C3986       C  0.86492779  0.96306597  0.26712964    -0.00600
C3987       C  0.85063469  0.96247083  0.28697065    -0.09200
C3988       C  0.85218884  0.98042194  0.30289906    -0.06600
C3989       C  0.86687468  0.99905483  0.29955616    -0.00600
C3990       C  0.87799249  0.00159263  0.27793179    -0.09100
C3991       C  0.89140963  0.02289257  0.27134881     0.61300
H3992       H  0.88680772  0.98417373  0.24647410     0.12000
H3993       H  0.84255436  0.97942551  0.31878273     0.12000
C3994       C  0.83365755  0.94337424  0.29172612     0.61500
F3995       F  0.89817989  0.02247346  0.24853606    -0.23700
F3996       F  0.91092444  0.02443064  0.28459391    -0.21000
F3997       F  0.87790494  0.04224924  0.27443659    -0.20700
F3998       F  0.84500682  0.92345449  0.29793579    -0.20700
F3999       F  0.82060549  0.93957273  0.27236628    -0.21000
F4000       F  0.81882669  0.94897573  0.30951022    -0.23700
C4001       C  0.00443115  0.87832541  0.27240863    -0.06600
C4002       C  0.00159918  0.86330637  0.29102601    -0.00600
C4003       C  0.98505784  0.84574418  0.28968762    -0.09200
C4004       C  0.96905617  0.84678380  0.27192077    -0.06600
C4005       C  0.96929512  0.86451589  0.25557381    -0.00600
C4006       C  0.98827467  0.87964014  0.25468999    -0.09100
C4007       C  0.99061798  0.89864282  0.23690638     0.61300
H4008       H  0.01786910  0.89097403  0.27320632     0.12000
H4009       H  0.95524896  0.83441928  0.27179126     0.12000
C4010       C  0.98264767  0.82650054  0.30708561     0.61500
F4011       F  0.01128227  0.90996781  0.23873453    -0.23700
F4012       F  0.97337656  0.91474470  0.23998128    -0.21000
F4013       F  0.98953137  0.88954485  0.21500198    -0.20700
F4014       F  0.96415046  0.83108416  0.32128417    -0.20700
F4015       F  0.00208413  0.82359836  0.32025412    -0.21000
F4016       F  0.97883166  0.80599291  0.29578840    -0.23700
C4017       C  0.90426932  0.77622953  0.26562576    -0.06600
C4018       C  0.88674422  0.77614200  0.24923393    -0.00600
C4019       C  0.87253750  0.75654070  0.24741732    -0.09200
C4020       C  0.87260003  0.74083247  0.26576154    -0.06600
C4021       C  0.88707489  0.74392124  0.28467561    -0.00600
C4022       C  0.90526790  0.75965305  0.28290180    -0.09100
C4023       C  0.92513927  0.76027132  0.29946853     0.61300
H4024       H  0.91649846  0.79011823  0.26580897     0.12000
H4025       H  0.85979726  0.72751529  0.26644116     0.12000
C4026       C  0.85660591  0.75259972  0.22727128     0.61500
F4027       F  0.92191780  0.77791740  0.31503194    -0.23700
F4028       F  0.94529453  0.76397884  0.28750834    -0.21000
F4029       F  0.92747913  0.73970762  0.31110564    -0.20700
F4030       F  0.86864751  0.75491211  0.20689884    -0.20700
F4031       F  0.83862817  0.76812714  0.22782083    -0.21000
F4032       F  0.84746622  0.73074073  0.22769689    -0.23700
C4033       C  0.86154398  0.76031702  0.14737569    -0.06600
C4034       C  0.87617718  0.77677277  0.13712293    -0.00600
C4035       C  0.89367076  0.76867509  0.12237171    -0.09200
C4036       C  0.89660330  0.74464646  0.11953515    -0.06600
C4037       C  0.88301091  0.72816603  0.13123675    -0.00600
C4038       C  0.86474585  0.73636509  0.14504932    -0.09100
C4039       C  0.84897267  0.72015528  0.15787362     0.61300
H4040       H  0.84764450  0.76637526  0.15813910     0.12000
H4041       H  0.91028968  0.73859942  0.10851365     0.12000
C4042       C  0.90977808  0.78516510  0.11051465     0.61500
F4043       F  0.86154635  0.70686155  0.17301825    -0.23700
F4044       F  0.83783705  0.70619320  0.14237428    -0.21000
F4045       F  0.83246580  0.73178380  0.17049216    -0.20700
F4046       F  0.92159245  0.79742055  0.12686459    -0.20700
F4047       F  0.89743560  0.80013963  0.09681039    -0.21000
F4048       F  0.92560009  0.77391175  0.09673801    -0.23700
C4049       C  0.77744006  0.89615009  0.26926915    -0.06600
C4050       C  0.78171537  0.87445353  0.26007364    -0.00600
C4051       C  0.76755427  0.85571507  0.26589311    -0.09200
C4052       C  0.75048321  0.85925008  0.28249305    -0.06600
C4053       C  0.74742450  0.88068871  0.29306631    -0.00600
C4054       C  0.75995906  0.89978225  0.28523194    -0.09100
C4055       C  0.75667817  0.92381227  0.29424567     0.61300
H4056       H  0.78830998  0.91039591  0.26425703     0.12000
H4057       H  0.74031098  0.84487467  0.28836526     0.12000
C4058       C  0.77103893  0.83198088  0.25557316     0.61500
F4059       F  0.75772006  0.93944187  0.27636759    -0.23700
F4060       F  0.77420856  0.92823780  0.30929596    -0.21000
F4061       F  0.73582008  0.92677628  0.30514704    -0.20700
F4062       F  0.79355840  0.82492364  0.25795988    -0.20700
F4063       F  0.76544740  0.83260666  0.23252113    -0.21000
F4064       F  0.75740391  0.81572878  0.26615087    -0.23700
C4065       C  0.75756598  0.88521325  0.16756101    -0.06600
C4066       C  0.77326272  0.88657390  0.14903362    -0.00600
C4067       C  0.76445673  0.89051410  0.12676515    -0.09200
C4068       C  0.74039085  0.89185300  0.12379658    -0.06600
C4069       C  0.72469461  0.88977729  0.14227009    -0.00600
C4070       C  0.73360707  0.88719664  0.16464481    -0.09100
C4071       C  0.71789141  0.88751219  0.18537456     0.61300
H4072       H  0.76430677  0.88261270  0.18473521     0.12000
H4073       H  0.73353710  0.89495091  0.10676208     0.12000
C4074       C  0.78032761  0.89304457  0.10626880     0.61500
F4075       F  0.72986308  0.88574670  0.20578370    -0.23700
F4076       F  0.70302373  0.86925117  0.18407317    -0.21000
F4077       F  0.70553350  0.90785874  0.18580631    -0.20700
F4078       F  0.79354691  0.87341735  0.10379395    -0.20700
F4079       F  0.79442706  0.91173066  0.10951320    -0.21000
F4080       F  0.76839130  0.89646288  0.08605521    -0.23700
C4081       C  0.75978974  0.60933564  0.89325633    -0.06600
C4082       C  0.77599432  0.61804877  0.87736312    -0.00600
C4083       C  0.76747570  0.62998675  0.85799673    -0.09200
C4084       C  0.74351604  0.63308354  0.85553042    -0.06600
C4085       C  0.72718476  0.62417433  0.87125644    -0.00600
C4086       C  0.73572609  0.61186025  0.89048692    -0.09100
C4087       C  0.71974736  0.60096683  0.90785426     0.61300
H4088       H  0.76618690  0.59996233  0.90794796     0.12000
H4089       H  0.73740870  0.64237310  0.84068052     0.12000
C4090       C  0.78344108  0.63831816  0.83927986     0.61500
F4091       F  0.73155513  0.58959343  0.92507017    -0.23700
F4092       F  0.70601495  0.58515407  0.89695958    -0.21000
F4093       F  0.70626172  0.61769607  0.91804514    -0.20700
F4094       F  0.77171099  0.64743847  0.82073302    -0.20700
F4095       F  0.79644748  0.62007019  0.83140992    -0.21000
F4096       F  0.79761020  0.65511289  0.84789856    -0.23700
C4097       C  0.89007911  0.62477576  0.76547813    -0.06600
C4098       C  0.87222281  0.62499047  0.78188139    -0.00600
C4099       C  0.84943710  0.62655853  0.77417926    -0.09200
C4100       C  0.84525112  0.62799495  0.75038289    -0.06600
C4101       C  0.86303676  0.62775873  0.73386231    -0.00600
C4102       C  0.88592643  0.62621651  0.74158121    -0.09100
C4103       C  0.90584043  0.62628639  0.72481937     0.61300
H4104       H  0.90744565  0.62284431  0.77159837     0.12000
H4105       H  0.82780694  0.62899885  0.74445071     0.12000
C4106       C  0.82968733  0.62559263  0.79106640     0.61500
F4107       F  0.92671250  0.62576146  0.73597334    -0.23700
F4108       F  0.90501164  0.64594641  0.71150330    -0.21000
F4109       F  0.90471490  0.60719080  0.71079787    -0.20700
F4110       F  0.83078932  0.64417783  0.80577027    -0.20700
F4111       F  0.83094680  0.60543533  0.80358464    -0.21000
F4112       F  0.80869170  0.62617544  0.78026323    -0.23700
C4113       C  0.99372420  0.61763655  0.86889432    -0.06600
C4114       C  0.97759485  0.62124863  0.88677532    -0.00600
C4115       C  0.98578033  0.62704532  0.90876117    -0.09200
C4116       C  0.00966065  0.62816624  0.91220443    -0.06600
C4117       C  0.02592021  0.62431994  0.89441318    -0.00600
C4118       C  0.01765262  0.61937382  0.87218388    -0.09100
C4119       C  0.03381276  0.61650378  0.85195012     0.61300
H4120       H  0.98732753  0.61313323  0.85203522     0.12000
H4121       H  0.01580973  0.63212578  0.92928047     0.12000
C4122       C  0.96947100  0.63146502  0.92862508     0.61500
F4123       F  0.02215507  0.61306317  0.83159785    -0.23700
F4124       F  0.04799182  0.59776004  0.85553466    -0.21000
F4125       F  0.04688879  0.63605137  0.84946167    -0.20700
F4126       F  0.95647995  0.61213825  0.93273431    -0.20700
F4127       F  0.95520328  0.64971818  0.92329322    -0.21000
F4128       F  0.98092606  0.63684499  0.94866469    -0.23700
C4129       C  0.86308680  0.60622849  0.99853613    -0.06600
C4130       C  0.87630211  0.61875804  0.98233339    -0.00600
C4131       C  0.89143025  0.63554286  0.99080699    -0.09200
C4132       C  0.89262541  0.63916825  0.01482141    -0.06600
C4133       C  0.88058209  0.62557192  0.03106010    -0.00600
C4134       C  0.86543932  0.60883628  0.02261364    -0.09100
C4135       C  0.85279788  0.59288654  0.03877928     0.61300
H4136       H  0.85139910  0.59352952  0.99228075     0.12000
H4137       H  0.90402367  0.65214707  0.02110587     0.12000
C4138       C  0.90736094  0.64859087  0.97490682     0.61500
F4139       F  0.83971499  0.57704891  0.02708160    -0.23700
F4140       F  0.83838111  0.60549436  0.05288630    -0.21000
F4141       F  0.86841551  0.58088150  0.05201797    -0.20700
F4142       F  0.92172812  0.66310376  0.98681517    -0.20700
F4143       F  0.89475253  0.66175360  0.95969580    -0.21000
F4144       F  0.92093122  0.63319672  0.96285730    -0.23700
C4145       C  0.87632130  0.25924444  0.10615198    -0.06600
C4146       C  0.87234481  0.27545259  0.12391658    -0.00600
C4147       C  0.86646031  0.26698334  0.14596873    -0.09200
C4148       C  0.86467312  0.24287746  0.14912196    -0.06600
C4149       C  0.86848704  0.22690984  0.13114119    -0.00600
C4150       C  0.87453458  0.23535655  0.10930939    -0.09100
C4151       C  0.87814088  0.21930607  0.08910367     0.61300
H4152       H  0.88065319  0.26543588  0.08915453     0.12000
H4153       H  0.85942959  0.23623397  0.16575364     0.12000
C4154       C  0.86152289  0.28304924  0.16587445     0.61500
F4155       F  0.88288505  0.23113576  0.06907880    -0.23700
F4156       F  0.85861846  0.20654179  0.08547649    -0.21000
F4157       F  0.89637823  0.20475090  0.09355362    -0.20700
F4158       F  0.85834732  0.27119892  0.18625972    -0.20700
F4159       F  0.84181361  0.29549841  0.16136356    -0.21000
F4160       F  0.87957795  0.29792584  0.16895114    -0.23700
C4161       C  0.75988695  0.37931262  0.10469624    -0.06600
C4162       C  0.77611098  0.37394340  0.12207175    -0.00600
C4163       C  0.76768789  0.36694613  0.14377021    -0.09200
C4164       C  0.74371214  0.36483320  0.14690081    -0.06600
C4165       C  0.72769071  0.36980759  0.12933818    -0.00600
C4166       C  0.73599244  0.37748146  0.10793396    -0.09100
C4167       C  0.71981452  0.38279705  0.08825652     0.61300
H4168       H  0.76600979  0.38473961  0.08807307     0.12000
H4169       H  0.73722958  0.35885443  0.16323228     0.12000
C4170       C  0.78370594  0.36202867  0.16362083     0.61500
F4171       F  0.73136566  0.38988005  0.06872731    -0.23700
F4172       F  0.70490088  0.40019987  0.09462620    -0.21000
F4173       F  0.70748622  0.36339886  0.08274386    -0.20700
F4174       F  0.79675174  0.38122386  0.16806388    -0.20700
F4175       F  0.79790853  0.34373972  0.15818740    -0.21000
F4176       F  0.77191289  0.35651598  0.18351754    -0.23700
C4177       C  0.88531043  0.50994035  0.14712501    -0.06600
C4178       C  0.87822417  0.52624481  0.13042274    -0.00600
C4179       C  0.87012264  0.51806339  0.10922643    -0.09200
C4180       C  0.86898305  0.49414179  0.10571446    -0.06600
C4181       C  0.87684521  0.47772588  0.12201155    -0.00600
C4182       C  0.88540016  0.48595537  0.14313713    -0.09100
C4183       C  0.89517256  0.46978493  0.16110097     0.61300
H4184       H  0.89184171  0.51628609  0.16334058     0.12000
H4185       H  0.86254782  0.48818234  0.08936026     0.12000
C4186       C  0.86428763  0.53441735  0.08979826     0.61500
F4187       F  0.90339378  0.48145724  0.18002533    -0.23700
F4188       F  0.91319284  0.45738428  0.15175081    -0.21000
F4189       F  0.87838918  0.45491059  0.16859160    -0.20700
F4190       F  0.88332951  0.54733704  0.08436727    -0.20700
F4191       F  0.84653767  0.54878544  0.09640882    -0.21000
F4192       F  0.85762467  0.52295942  0.07014279    -0.23700
C4193       C  0.86639944  0.50007481  0.98391160    -0.06600
C4194       C  0.88640735  0.50199669  0.97075541    -0.00600
C4195       C  0.90552525  0.48789536  0.97576324    -0.09200
C4196       C  0.90282956  0.47024624  0.99195654    -0.06600
C4197       C  0.88217058  0.46720670  0.00392670    -0.00600
C4198       C  0.86378185  0.48282822  0.00042159    -0.09100
C4199       C  0.84089873  0.48060813  0.01273361     0.61300
H4200       H  0.85206786  0.51128466  0.98003302     0.12000
H4201       H  0.91694050  0.45856714  0.99514397     0.12000
C4202       C  0.92878697  0.49069875  0.96447072     0.61500
F4203       F  0.82486299  0.49626212  0.00474067    -0.23700
F4204       F  0.84378005  0.48456974  0.03594875    -0.21000
F4205       F  0.83210695  0.45888907  0.00938758    -0.20700
F4206       F  0.93095543  0.51150780  0.95326321    -0.20700
F4207       F  0.93230896  0.47311763  0.94890864    -0.21000
F4208       F  0.94570305  0.48969961  0.98101960    -0.23700
C4209       C  0.99470756  0.37500508  0.10211629    -0.06600
C4210       C  0.97851526  0.37941416  0.11987636    -0.00600
C4211       C  0.98697652  0.38541693  0.14179409    -0.09200
C4212       C  0.01093157  0.38630222  0.14511067    -0.06600
C4213       C  0.02697372  0.38233401  0.12727465    -0.00600
C4214       C  0.01863577  0.37671409  0.10527229    -0.09100
C4215       C  0.03471158  0.37377313  0.08494847     0.61300
H4216       H  0.98846021  0.37067904  0.08520369     0.12000
H4217       H  0.01742347  0.39084900  0.16185156     0.12000
C4218       C  0.97107581  0.39105345  0.16164053     0.61500
F4219       F  0.02310783  0.36844727  0.06497074    -0.23700
F4220       F  0.05008915  0.35619653  0.08931985    -0.21000
F4221       F  0.04650118  0.39395195  0.08124490    -0.20700
F4222       F  0.95764713  0.37226072  0.16666138    -0.20700
F4223       F  0.95729518  0.40953002  0.15584749    -0.21000
F4224       F  0.98298698  0.39686298  0.18129900    -0.23700
C4225       C  0.11305794  0.38884748  0.76576167    -0.06600
C4226       C  0.11867377  0.37182221  0.78214265    -0.00600
C4227       C  0.12680167  0.35037795  0.77431432    -0.09200
C4228       C  0.12848977  0.34662221  0.75041778    -0.06600
C4229       C  0.12224456  0.36340843  0.73385451    -0.00600
C4230       C  0.11458777  0.38511683  0.74182756    -0.09100
C4231       C  0.10799414  0.40433698  0.72548586     0.61300
H4232       H  0.10680981  0.40524230  0.77197987     0.12000
H4233       H  0.13451517  0.33004710  0.74456777     0.12000
C4234       C  0.13299125  0.33130790  0.79099105     0.61500
F4235       F  0.10138849  0.42406449  0.73706135    -0.23700
F4236       F  0.08981335  0.39757931  0.71201563    -0.21000
F4237       F  0.12648089  0.40975381  0.71166842    -0.20700
F4238       F  0.11448108  0.32649228  0.80501485    -0.20700
F4239       F  0.15127535  0.33808321  0.80431583    -0.21000
F4240       F  0.13916635  0.31125443  0.77978601    -0.23700
C4241       C  0.13894285  0.24474794  0.86464063    -0.06600
C4242       C  0.12430959  0.22867174  0.87548737    -0.00600
C4243       C  0.10725394  0.23710215  0.89055068    -0.09200
C4244       C  0.10528956  0.26100495  0.89383058    -0.06600
C4245       C  0.11865608  0.27723683  0.88166181    -0.00600
C4246       C  0.13627785  0.26881597  0.86712075    -0.09100
C4247       C  0.15190387  0.28486061  0.85392589     0.61300
H4248       H  0.15232594  0.23826995  0.85338365     0.12000
H4249       H  0.09223824  0.26720047  0.90558641     0.12000
C4250       C  0.09022950  0.22123733  0.90210116     0.61500
F4251       F  0.16717463  0.27301936  0.83999254    -0.23700
F4252       F  0.16439205  0.29787945  0.86919982    -0.21000
F4253       F  0.13907848  0.29916102  0.83998596    -0.20700
F4254       F  0.10159612  0.20646677  0.91681689    -0.20700
F4255       F  0.07875430  0.20875483  0.88560618    -0.21000
F4256       F  0.07401409  0.23319351  0.91479712    -0.23700
C4257       C  0.10720644  0.49596992  0.87168747    -0.06600
C4258       C  0.11873505  0.47901414  0.88495092    -0.00600
C4259       C  0.13460774  0.48658721  0.90153825    -0.09200
C4260       C  0.13786277  0.51048435  0.90447405    -0.06600
C4261       C  0.12539120  0.52742057  0.89206482    -0.00600
C4262       C  0.10996607  0.51985404  0.87508979    -0.09100
C4263       C  0.09595471  0.53674086  0.86101100     0.61300
H4264       H  0.09531922  0.49041102  0.85869631     0.12000
H4265       H  0.14997450  0.51607838  0.91723407     0.12000
C4266       C  0.14745333  0.46974293  0.91672654     0.61500
F4267       F  0.08148921  0.52580347  0.84583826    -0.23700
F4268       F  0.11042792  0.55059041  0.84836157    -0.21000
F4269       F  0.08258595  0.55013698  0.87544083    -0.20700
F4270       F  0.16074621  0.45528108  0.90330653    -0.20700
F4271       F  0.13199855  0.45698775  0.92935311    -0.21000
F4272       F  0.16178758  0.48069464  0.93202449    -0.23700
C4273       C  0.01135300  0.49223994  0.87443292    -0.06600
C4274       C  0.00908349  0.47540240  0.89145371    -0.00600
C4275       C  0.99228047  0.47816666  0.90872883    -0.09200
C4276       C  0.97502604  0.49439420  0.90513277    -0.06600
C4277       C  0.97507545  0.50886620  0.88588296    -0.00600
C4278       C  0.99456641  0.50920553  0.87122610    -0.09100
C4279       C  0.99695345  0.52586660  0.85130219     0.61300
H4280       H  0.02531228  0.49054313  0.86182673     0.12000
H4281       H  0.96059336  0.49522953  0.91741074     0.12000
C4282       C  0.99168756  0.46406649  0.93060090     0.61500
F4283       F  0.01782203  0.52343328  0.84018171    -0.23700
F4284       F  0.99552619  0.54816214  0.85931227    -0.21000
F4285       F  0.97989379  0.52203981  0.83538197    -0.20700
F4286       F  0.98726749  0.47833247  0.94911506    -0.20700
F4287       F  0.01233566  0.45308838  0.93470163    -0.21000
F4288       F  0.97450906  0.44794361  0.92920717    -0.23700
C4289       C  0.13909606  0.39413987  0.01537229    -0.06600
C4290       C  0.12508097  0.38276469  0.03170479    -0.00600
C4291       C  0.10908960  0.36673162  0.02342407    -0.09200
C4292       C  0.10617887  0.36453073  0.99940821    -0.06600
C4293       C  0.11876999  0.37747835  0.98305960    -0.00600
C4294       C  0.13646155  0.39164635  0.99133200    -0.09100
C4295       C  0.15236187  0.40429431  0.97512307     0.61300
H4296       H  0.15208828  0.40571499  0.02161220     0.12000
H4297       H  0.09336356  0.35275386  0.99327598     0.12000
C4298       C  0.09470910  0.35242028  0.03964424     0.61500
F4299       F  0.16932909  0.41589366  0.98679853    -0.23700
F4300       F  0.14004982  0.42014445  0.96243373    -0.21000
F4301       F  0.16295444  0.38878672  0.96051706    -0.20700
F4302       F  0.08095080  0.36664296  0.05279971    -0.20700
F4303       F  0.10885827  0.33963847  0.05379166    -0.21000
F4304       F  0.08072226  0.33731379  0.02799981    -0.23700
C4305       C  0.98796120  0.37155588  0.01132530    -0.06600
C4306       C  0.96914802  0.38637353  0.00915623    -0.00600
C4307       C  0.97016889  0.40479182  0.99335937    -0.09200
C4308       C  0.98752267  0.40456523  0.97678423    -0.06600
C4309       C  0.00434199  0.38731523  0.97645760    -0.00600
C4310       C  0.00593623  0.37178571  0.99529919    -0.09100
C4311       C  0.02530493  0.35444282  0.99795902     0.61300
H4312       H  0.98750161  0.35832512  0.02442963     0.12000
H4313       H  0.98718646  0.41731689  0.96308460     0.12000
C4314       C  0.95264363  0.42404208  0.99292105     0.61500
F4315       F  0.02414454  0.34294266  0.01874198    -0.23700
F4316       F  0.04610960  0.36560188  0.99716684    -0.21000
F4317       F  0.02426771  0.33818757  0.98070504    -0.20700
F4318       F  0.96233094  0.44397473  0.98450938    -0.20700
F4319       F  0.94461417  0.42864862  0.01484295    -0.21000
F4320       F  0.93459739  0.41808210  0.97889285    -0.23700
C4321       C  0.62832468  0.36792031  0.76952522    -0.06600
C4322       C  0.63294954  0.38709958  0.78348521    -0.00600
C4323       C  0.63759516  0.40834406  0.77286175    -0.09200
C4324       C  0.63620865  0.40998017  0.74874919    -0.06600
C4325       C  0.63131567  0.39089911  0.73471904    -0.00600
C4326       C  0.62740260  0.36942028  0.74528357    -0.09100
C4327       C  0.62179430  0.34839162  0.73115460     0.61300
H4328       H  0.62603629  0.35146525  0.77786101     0.12000
H4329       H  0.63908754  0.42638882  0.74053563     0.12000
C4330       C  0.64517754  0.42883430  0.78689979     0.61500
F4331       F  0.61934216  0.32904349  0.74474560    -0.23700
F4332       F  0.63919817  0.34416052  0.71554740    -0.21000
F4333       F  0.60152952  0.35201050  0.71946998    -0.20700
F4334       F  0.66569994  0.42378675  0.79761954    -0.20700
F4335       F  0.62882517  0.43392124  0.80336483    -0.21000
F4336       F  0.64830273  0.44814279  0.77340025    -0.23700
C4337       C  0.77454532  0.46296649  0.89281399    -0.06600
C4338       C  0.75504911  0.46679721  0.87951882    -0.00600
C4339       C  0.75242888  0.48718201  0.86668319    -0.09200
C4340       C  0.77080222  0.50258637  0.86614742    -0.06600
C4341       C  0.79087828  0.49793299  0.87843856    -0.00600
C4342       C  0.79253095  0.47846333  0.89286250    -0.09100
C4343       C  0.81288699  0.47421792  0.90859467     0.61300
H4344       H  0.77566013  0.44740153  0.90300858     0.12000
H4345       H  0.76980673  0.51812797  0.85593833     0.12000
C4346       C  0.73062299  0.49232551  0.85361206     0.61500
F4347       F  0.80945494  0.45554974  0.92290133    -0.23700
F4348       F  0.81635661  0.49322514  0.92232804    -0.21000
F4349       F  0.83235638  0.46991460  0.89573366    -0.20700
F4350       F  0.73131815  0.51363072  0.84308355    -0.20700
F4351       F  0.71221313  0.49217799  0.86859631    -0.21000
F4352       F  0.72738223  0.47586419  0.83688534    -0.23700
C4353       C  0.65421333  0.49719579  0.88866468    -0.06600
C4354       C  0.63824147  0.48087024  0.88045783    -0.00600
C4355       C  0.61798734  0.48916789  0.87001386    -0.09200
C4356       C  0.61461889  0.51313526  0.86828266    -0.06600
C4357       C  0.63076090  0.52933469  0.87616169    -0.00600
C4358       C  0.65091993  0.52114291  0.88666328    -0.09100
C4359       C  0.66919456  0.53744607  0.89508576     0.61300
H4360       H  0.66980307  0.49112314  0.89663006     0.12000
H4361       H  0.59911341  0.51945888  0.86033054     0.12000
C4362       C  0.59990917  0.47311286  0.86072557     0.61500
F4363       F  0.68782296  0.52590646  0.90426275    -0.23700
F4364       F  0.66017488  0.55148581  0.91202753    -0.21000
F4365       F  0.67693758  0.55072250  0.87698890    -0.20700
F4366       F  0.59128325  0.45987334  0.87842592    -0.20700
F4367       F  0.60936549  0.45907698  0.84402275    -0.21000
F4368       F  0.58179990  0.48492666  0.85085356    -0.23700
C4369       C  0.63986422  0.39326093  0.00033835    -0.06600
C4370       C  0.63444673  0.37608716  0.98405618    -0.00600
C4371       C  0.62593024  0.35500948  0.99221055    -0.09200
C4372       C  0.62388295  0.35159651  0.01612459    -0.06600
C4373       C  0.62986034  0.36842710  0.03262621    -0.00600
C4374       C  0.63744298  0.38997999  0.02441356    -0.09100
C4375       C  0.64252368  0.40953760  0.04073822     0.61300
H4376       H  0.64638622  0.40942191  0.99396647     0.12000
H4377       H  0.61785674  0.33511177  0.02204310     0.12000
C4378       C  0.62023111  0.33566948  0.97583457     0.61500
F4379       F  0.64888097  0.42925419  0.02914412    -0.23700
F4380       F  0.66023237  0.40342943  0.05524046    -0.21000
F4381       F  0.62317262  0.41459686  0.05357436    -0.20700
F4382       F  0.61266723  0.31627457  0.98722877    -0.20700
F4383       F  0.63956647  0.32972953  0.96340311    -0.21000
F4384       F  0.60312239  0.34267196  0.96100584    -0.23700
C4385       C  0.75186841  0.35491738  0.98932647    -0.06600
C4386       C  0.75291091  0.37238673  0.97282298    -0.00600
C4387       C  0.76897783  0.39029861  0.97465564    -0.09200
C4388       C  0.78402189  0.38982017  0.99307932    -0.06600
C4389       C  0.78374691  0.37190776  0.00900982    -0.00600
C4390       C  0.76715801  0.35446337  0.00782396    -0.09100
C4391       C  0.76503629  0.33525129  0.02526968     0.61300
H4392       H  0.73920693  0.34147709  0.98761993     0.12000
H4393       H  0.79706686  0.40290187  0.99458359     0.12000
C4394       C  0.77079558  0.40942772  0.95689765     0.61500
F4395       F  0.74277677  0.33450956  0.03338321    -0.23700
F4396       F  0.77933094  0.33798848  0.04393099    -0.21000
F4397       F  0.77017483  0.31457626  0.01480781    -0.20700
F4398       F  0.75045430  0.42161529  0.95594441    -0.20700
F4399       F  0.77559321  0.40027703  0.93550479    -0.21000
F4400       F  0.78804359  0.42471402  0.96211676    -0.23700
C4401       C  0.62882632  0.24585742  0.91152939    -0.06600
C4402       C  0.63135592  0.23007513  0.89310669    -0.00600
C4403       C  0.63598635  0.23907599  0.87098358    -0.09200
C4404       C  0.63736272  0.26322551  0.86812135    -0.06600
C4405       C  0.63465665  0.27888368  0.88653139    -0.00600
C4406       C  0.63079196  0.26991185  0.90871743    -0.09100
C4407       C  0.63031558  0.28555438  0.92951055     0.61300
H4408       H  0.62572335  0.23917030  0.92850636     0.12000
H4409       H  0.64105187  0.27014665  0.85130665     0.12000
C4410       C  0.63933220  0.22345837  0.85043223     0.61500
F4411       F  0.62726428  0.27354823  0.94976872    -0.23700
F4412       F  0.61257687  0.30123581  0.92753116    -0.21000
F4413       F  0.65087569  0.29707292  0.93093820    -0.20700
F4414       F  0.61985807  0.21056454  0.84707736    -0.20700
F4415       F  0.65781635  0.20901732  0.85419075    -0.21000
F4416       F  0.64357149  0.23570866  0.83049447    -0.23700
C4417       C  0.99013251  0.14483018  0.89662625    -0.06600
C4418       C  0.97459977  0.14021739  0.87863537    -0.00600
C4419       C  0.98356631  0.13377642  0.85702010    -0.09200
C4420       C  0.00750739  0.13199252  0.85432254    -0.06600
C4421       C  0.02315280  0.13631660  0.87235217    -0.00600
C4422       C  0.01419152  0.14312221  0.89389328    -0.09100
C4423       C  0.02981319  0.14870960  0.91378576     0.61300
H4424       H  0.98315038  0.15028767  0.91307570     0.12000
H4425       H  0.01422500  0.12707884  0.83760759     0.12000
C4426       C  0.96803800  0.12964139  0.83666352     0.61500
F4427       F  0.01761671  0.15437241  0.93342499    -0.23700
F4428       F  0.04336508  0.16720883  0.90798408    -0.21000
F4429       F  0.04354752  0.12996160  0.91880299    -0.20700
F4430       F  0.95457021  0.14885482  0.83295361    -0.20700
F4431       F  0.95424719  0.11096002  0.84107084    -0.21000
F4432       F  0.98023958  0.12524201  0.81669215    -0.23700
C4433       C  0.88617158  0.14479229  0.99993435    -0.06600
C4434       C  0.87162357  0.13459471  0.98342975    -0.00600
C4435       C  0.85352163  0.12084167  0.99143730    -0.09200
C4436       C  0.85026225  0.11842451  0.01536011    -0.06600
C4437       C  0.86400489  0.12964090  0.03194576    -0.00600
C4438       C  0.88257121  0.14292843  0.02391283    -0.09100
C4439       C  0.89815887  0.15566351  0.04025602     0.61300
H4440       H  0.90031504  0.15511863  0.99383910     0.12000
H4441       H  0.83618427  0.10790091  0.02120734     0.12000
C4442       C  0.83700659  0.10974072  0.97492163     0.61500
F4443       F  0.91524897  0.16739048  0.02874233    -0.23700
F4444       F  0.90858512  0.14029103  0.05505520    -0.21000
F4445       F  0.88550635  0.17149916  0.05271446    -0.20700
F4446       F  0.84875479  0.09494098  0.96047971    -0.20700
F4447       F  0.82628473  0.12664379  0.96217215    -0.21000
F4448       F  0.82030497  0.09724827  0.98614125    -0.23700
C4449       C  0.84342770  0.26259796  0.98247609    -0.06600
C4450       C  0.86088583  0.24594448  0.98178351    -0.00600
C4451       C  0.87492154  0.24283140  0.00150242    -0.09200
C4452       C  0.87483882  0.26021885  0.01824969    -0.06600
C4453       C  0.86017436  0.27924707  0.01633492    -0.00600
C4454       C  0.84204828  0.27850409  0.00040800    -0.09100
C4455       C  0.82158998  0.29454218  0.00151265     0.61300
H4456       H  0.83117559  0.26369559  0.96856502     0.12000
H4457       H  0.88774061  0.26010703  0.03156512     0.12000
C4458       C  0.89081445  0.22233249  0.00449688     0.61500
F4459       F  0.80183480  0.28235038  0.99714767    -0.23700
F4460       F  0.82380999  0.31162376  0.98519118    -0.21000
F4461       F  0.81927873  0.30438681  0.02303999    -0.20700
F4462       F  0.90912554  0.22388023  0.98949541    -0.20700
F4463       F  0.87892891  0.20226814  0.00054464    -0.21000
F4464       F  0.89946709  0.22111873  0.02654805    -0.23700
C4465       C  0.96537207  0.26898459  0.86094140    -0.06600
C4466       C  0.96287768  0.25558518  0.88076475    -0.00600
C4467       C  0.97943577  0.25692904  0.89853815    -0.09200
C4468       C  0.99681576  0.27329265  0.89651660    -0.06600
C4469       C  0.99801149  0.28805970  0.87757403    -0.00600
C4470       C  0.98312722  0.28488066  0.85875798    -0.09100
C4471       C  0.98494304  0.29876131  0.83679486     0.61300
H4472       H  0.95300206  0.26734904  0.84729659     0.12000
H4473       H  0.00869845  0.27572069  0.91048069     0.12000
C4474       C  0.97820354  0.24233411  0.92020149     0.61500
F4475       F  0.97704827  0.28625900  0.81828737    -0.23700
F4476       F  0.00742610  0.30451072  0.83214538    -0.21000
F4477       F  0.97188848  0.31852441  0.83886696    -0.20700
F4478       F  0.98104108  0.21943319  0.91457017    -0.20700
F4479       F  0.95731320  0.24558307  0.93103116    -0.21000
F4480       F  0.99511991  0.24789075  0.93577219    -0.23700
C4481       C  0.76114519  0.24689328  0.87177424    -0.06600
C4482       C  0.77436498  0.24534203  0.89174715    -0.00600
C4483       C  0.76925368  0.25938493  0.91079966    -0.09200
C4484       C  0.75378949  0.27751920  0.90777648    -0.06600
C4485       C  0.74280005  0.28104447  0.88668178    -0.00600
C4486       C  0.74556007  0.26492989  0.86860117    -0.09100
C4487       C  0.73414413  0.26787561  0.84529055     0.61300
H4488       H  0.76499725  0.23544155  0.85759180     0.12000
H4489       H  0.75111864  0.28970777  0.92162157     0.12000
C4490       C  0.78113769  0.25667333  0.93373593     0.61500
F4491       F  0.74065995  0.25090597  0.82993151    -0.23700
F4492       F  0.74015710  0.28876376  0.83576705    -0.21000
F4493       F  0.71063425  0.26682387  0.84777672    -0.20700
F4494       F  0.79921144  0.27178928  0.93493501    -0.20700
F4495       F  0.78921984  0.23449888  0.93680559    -0.21000
F4496       F  0.76599418  0.26137841  0.95146898    -0.23700
C4497       C  0.75940869  0.13076314  0.86776726    -0.06600
C4498       C  0.77444633  0.13237098  0.88665313    -0.00600
C4499       C  0.76492659  0.13261878  0.90898444    -0.09200
C4500       C  0.74097074  0.13073547  0.91171945    -0.06600
C4501       C  0.72581587  0.12937547  0.89290428    -0.00600
C4502       C  0.73529810  0.12911540  0.87045961    -0.09100
C4503       C  0.72021249  0.12657839  0.84949991     0.61300
H4504       H  0.76675632  0.13135542  0.85072495     0.12000
H4505       H  0.73380144  0.13074482  0.92886402     0.12000
C4506       C  0.78000951  0.13580035  0.92980352     0.61500
F4507       F  0.73281127  0.12668621  0.82931832    -0.23700
F4508       F  0.70470405  0.14455615  0.84850335    -0.21000
F4509       F  0.70853088  0.10604713  0.85073751    -0.20700
F4510       F  0.79188541  0.15618256  0.92791321    -0.20700
F4511       F  0.79530529  0.11768039  0.93104824    -0.21000
F4512       F  0.76750593  0.13647430  0.95004101    -0.23700
C4513       C  0.86192266  0.14476974  0.76663208    -0.06600
C4514       C  0.88072455  0.14266611  0.78172216    -0.00600
C4515       C  0.90278565  0.13958339  0.77224241    -0.09200
C4516       C  0.90509330  0.13785309  0.74815549    -0.06600
C4517       C  0.88620104  0.13932908  0.73301921    -0.00600
C4518       C  0.86422600  0.14318556  0.74248968    -0.09100
C4519       C  0.84327467  0.14519358  0.72735814     0.61300
H4520       H  0.84517669  0.14788917  0.77401908     0.12000
H4521       H  0.92198992  0.13529111  0.74090238     0.12000
C4522       C  0.92385161  0.13927130  0.78733788     0.61500
F4523       F  0.82342973  0.14805740  0.74011850    -0.23700
F4524       F  0.84102148  0.12549754  0.71436069    -0.21000
F4525       F  0.84547436  0.16395500  0.71297181    -0.20700
F4526       F  0.92222275  0.12170510  0.80320346    -0.20700
F4527       F  0.92550114  0.16004030  0.79866361    -0.21000
F4528       F  0.94375955  0.13588701  0.77477784    -0.23700
C4529       C  0.88620087  0.49843650  0.65213449    -0.06600
C4530       C  0.87160666  0.48184335  0.64213088    -0.00600
C4531       C  0.85283461  0.48988355  0.62914993    -0.09200
C4532       C  0.84904260  0.51380360  0.62726290    -0.06600
C4533       C  0.86301878  0.53043891  0.63806960    -0.00600
C4534       C  0.88220402  0.52242777  0.65059789    -0.09100
C4535       C  0.89817007  0.53883995  0.66273613     0.61300
H4536       H  0.90081912  0.49242194  0.66182109     0.12000
H4537       H  0.83447296  0.51959692  0.61739671     0.12000
C4538       C  0.83624458  0.47340940  0.61813303     0.61500
F4539       F  0.91588101  0.52743691  0.67373386    -0.23700
F4540       F  0.88609738  0.55119494  0.67910251    -0.21000
F4541       F  0.90776572  0.55372006  0.64696532    -0.20700
F4542       F  0.82632205  0.46009201  0.63502951    -0.20700
F4543       F  0.84775357  0.45953896  0.60261155    -0.21000
F4544       F  0.81890612  0.48468182  0.60643545    -0.23700
C4545       C  0.78014041  0.40867328  0.77161776    -0.06600
C4546       C  0.77980384  0.39177920  0.75449585    -0.00600
C4547       C  0.75976418  0.37828960  0.75171546    -0.09200
C4548       C  0.74287766  0.37938159  0.76892652    -0.06600
C4549       C  0.74552498  0.39342868  0.78822836    -0.00600
C4550       C  0.76290027  0.41021904  0.78822279    -0.09100
C4551       C  0.76475615  0.42917882  0.80592946     0.61300
H4552       H  0.79460446  0.42015549  0.77278228     0.12000
H4553       H  0.72879204  0.36745458  0.76861228     0.12000
C4554       C  0.75653118  0.36164545  0.73194896     0.61500
F4555       F  0.78220385  0.42394559  0.82108838    -0.23700
F4556       F  0.74459116  0.43246401  0.81799505    -0.21000
F4557       F  0.76979347  0.44967029  0.79505454    -0.20700
F4558       F  0.77184145  0.34354908  0.73384048    -0.20700
F4559       F  0.75980456  0.37293279  0.71131665    -0.21000
F4560       F  0.73467706  0.35260214  0.73171082    -0.23700
C4561       C  0.75760988  0.37170361  0.65575155    -0.06600
C4562       C  0.77399370  0.38479596  0.64338649    -0.00600
C4563       C  0.76577556  0.40123476  0.62756877    -0.09200
C4564       C  0.74186433  0.40446158  0.62530446    -0.06600
C4565       C  0.72550678  0.39184430  0.63815039    -0.00600
C4566       C  0.73368105  0.37496639  0.65358997    -0.09100
C4567       C  0.71743780  0.36060732  0.66797515     0.61300
H4568       H  0.76367086  0.35871790  0.66752241     0.12000
H4569       H  0.73583136  0.41719154  0.61326113     0.12000
C4570       C  0.78203850  0.41548163  0.61325561     0.61500
F4571       F  0.72896745  0.34552004  0.68227517    -0.23700
F4572       F  0.70364673  0.34778285  0.65371862    -0.21000
F4573       F  0.70400042  0.37476100  0.68161098    -0.20700
F4574       F  0.79508327  0.40117786  0.59942960    -0.20700
F4575       F  0.79614596  0.42782503  0.62755092    -0.21000
F4576       F  0.77062893  0.43091389  0.59922324    -0.23700
C4577       C  0.88050220  0.51554434  0.76507523    -0.06600
C4578       C  0.86527075  0.51385120  0.78358953    -0.00600
C4579       C  0.84762087  0.49744793  0.78297404    -0.09200
C4580       C  0.84934428  0.47966690  0.76699085    -0.06600
C4581       C  0.86736891  0.47876514  0.75102261    -0.00600
C4582       C  0.88192667  0.49812698  0.74847645    -0.09100
C4583       C  0.90010060  0.49994517  0.72983103     0.61300
H4584       H  0.89309539  0.52899631  0.76523271     0.12000
H4585       H  0.83717417  0.46578241  0.76783311     0.12000
C4586       C  0.82751492  0.49731683  0.79952787     0.61500
F4587       F  0.91074411  0.52110713  0.72997708    -0.23700
F4588       F  0.89012541  0.49728399  0.70851052    -0.21000
F4589       F  0.91680097  0.48334101  0.73307359    -0.20700
F4590       F  0.82552980  0.51761033  0.81171201    -0.20700
F4591       F  0.82994015  0.47924408  0.81476190    -0.21000
F4592       F  0.80744260  0.49451451  0.78735753    -0.23700
C4593       C  0.99057285  0.36840555  0.66468156    -0.06600
C4594       C  0.97561889  0.37018900  0.64566355    -0.00600
C4595       C  0.98521149  0.37034633  0.62334404    -0.09200
C4596       C  0.00931715  0.36942368  0.62094566    -0.06600
C4597       C  0.02418848  0.36792685  0.63997826    -0.00600
C4598       C  0.01459028  0.36687092  0.66222952    -0.09100
C4599       C  0.02960435  0.36319046  0.68315564     0.61300
H4600       H  0.98319427  0.36820796  0.68177822     0.12000
H4601       H  0.01684601  0.36901738  0.60390251     0.12000
C4602       C  0.97017717  0.37116753  0.60220673     0.61500
F4603       F  0.01688186  0.36188088  0.70321878    -0.23700
F4604       F  0.04469097  0.38122909  0.68520896    -0.21000
F4605       F  0.04185610  0.34291400  0.68085341    -0.20700
F4606       F  0.95580730  0.39009529  0.60308639    -0.20700
F4607       F  0.95722798  0.35141942  0.60125645    -0.21000
F4608       F  0.98295485  0.37258007  0.58219139    -0.23700
C4609       C  0.98781988  0.38332859  0.75127363    -0.06600
C4610       C  0.96877888  0.36918006  0.75451456    -0.00600
C4611       C  0.96977731  0.35172990  0.77127488    -0.09200
C4612       C  0.98646161  0.35331269  0.78840460    -0.06600
C4613       C  0.00362551  0.37008892  0.78744966    -0.00600
C4614       C  0.00598355  0.38334289  0.76705420    -0.09100
C4615       C  0.02685330  0.39788635  0.76200449     0.61300
H4616       H  0.98770676  0.39553384  0.73722930     0.12000
H4617       H  0.98583725  0.34156096  0.80282380     0.12000
C4618       C  0.95370673  0.33142047  0.77140452     0.61500
F4619       F  0.02658547  0.40632367  0.73976112    -0.23700
F4620       F  0.04645103  0.38463449  0.76436906    -0.21000
F4621       F  0.02761580  0.41639633  0.77679850    -0.20700
F4622       F  0.94366966  0.32819484  0.75014966    -0.20700
F4623       F  0.93683797  0.33465144  0.78780255    -0.21000
F4624       F  0.96583257  0.31161085  0.77651013    -0.23700
C4625       C  0.89658977  0.28463243  0.77175208    -0.06600
C4626       C  0.87683552  0.28888549  0.75886394    -0.00600
C4627       C  0.85741370  0.27454202  0.76137873    -0.09200
C4628       C  0.85774722  0.25798148  0.77878448    -0.06600
C4629       C  0.87665025  0.25542989  0.79323755    -0.00600
C4630       C  0.89695631  0.26767672  0.78879885    -0.09100
C4631       C  0.91878672  0.26293882  0.80198901     0.61300
H4632       H  0.91141743  0.29535823  0.76904230     0.12000
H4633       H  0.84264688  0.24787289  0.78220918     0.12000
C4634       C  0.83592336  0.27732140  0.74688314     0.61500
F4635       F  0.93747863  0.27310362  0.79159305    -0.23700
F4636       F  0.92287433  0.23953755  0.80289628    -0.21000
F4637       F  0.91681120  0.27149818  0.82401228    -0.20700
F4638       F  0.84116044  0.27338811  0.72402915    -0.20700
F4639       F  0.82694319  0.29920558  0.74945967    -0.21000
F4640       F  0.81905925  0.26193984  0.75312315    -0.23700
C4641       C  0.88633499  0.24638696  0.62000014    -0.06600
C4642       C  0.88136697  0.23042787  0.63760067    -0.00600
C4643       C  0.87438610  0.23887608  0.65924281    -0.09200
C4644       C  0.87294868  0.26289067  0.66246759    -0.06600
C4645       C  0.87815852  0.27904765  0.64493277    -0.00600
C4646       C  0.88491351  0.27043858  0.62318075    -0.09100
C4647       C  0.89045946  0.28628812  0.60330771     0.61300
H4648       H  0.89183314  0.23972102  0.60348652     0.12000
H4649       H  0.86777860  0.26919275  0.67919613     0.12000
C4650       C  0.86906393  0.22272876  0.67902647     0.61500
F4651       F  0.89667885  0.27424754  0.58373266    -0.23700
F4652       F  0.90852111  0.30030013  0.60911940    -0.21000
F4653       F  0.87147146  0.29956856  0.59811741    -0.20700
F4654       F  0.88764602  0.20853044  0.68324674    -0.20700
F4655       F  0.85030455  0.20951941  0.67352400    -0.21000
F4656       F  0.86409451  0.23447925  0.69911222    -0.23700
C4657       C  0.60327157  0.76200714  0.89687337    -0.06600
C4658       C  0.61675226  0.77862770  0.88531400    -0.00600
C4659       C  0.63454607  0.77067506  0.87076157    -0.09200
C4660       C  0.63795821  0.74673688  0.86829775    -0.06600
C4661       C  0.62347177  0.73026456  0.87864648    -0.00600
C4662       C  0.60571716  0.73817782  0.89314846    -0.09100
C4663       C  0.58805641  0.72185095  0.90277411     0.61300
H4664       H  0.58972409  0.76778182  0.90819214     0.12000
H4665       H  0.65162436  0.74070571  0.85726246     0.12000
C4666       C  0.64927118  0.78710883  0.85707004     0.61500
F4667       F  0.57134071  0.73301418  0.91546210    -0.23700
F4668       F  0.59836514  0.70582674  0.91693721    -0.21000
F4669       F  0.57751747  0.71094593  0.88467355    -0.20700
F4670       F  0.66095635  0.80138179  0.87184221    -0.20700
F4671       F  0.63556347  0.80007206  0.84265767    -0.21000
F4672       F  0.66523050  0.77570862  0.84356537    -0.23700
C4673       C  0.60350547  0.89083116  0.76830940    -0.06600
C4674       C  0.61534818  0.87666145  0.78428527    -0.00600
C4675       C  0.63094132  0.86020283  0.77574698    -0.09200
C4676       C  0.63349780  0.85816073  0.75173839    -0.06600
C4677       C  0.62014552  0.87096055  0.73576884    -0.00600
C4678       C  0.60508982  0.88789399  0.74432387    -0.09100
C4679       C  0.59017677  0.90222383  0.72847984     0.61300
H4680       H  0.59200811  0.90400578  0.77476659     0.12000
H4681       H  0.64554393  0.84548595  0.74529908     0.12000
C4682       C  0.64385035  0.84404013  0.79162547     0.61500
F4683       F  0.57594247  0.91704329  0.74052969    -0.23700
F4684       F  0.57648955  0.88804704  0.71544015    -0.21000
F4685       F  0.60387895  0.91521345  0.71416539    -0.20700
F4686       F  0.62842225  0.83078335  0.80376181    -0.20700
F4687       F  0.65701623  0.85649772  0.80677038    -0.21000
F4688       F  0.65834929  0.82938947  0.77969662    -0.23700
C4689       C  0.59762350  0.99649231  0.87583938    -0.06600
C4690       C  0.61454600  0.98015578  0.88236593    -0.00600
C4691       C  0.63632906  0.98832950  0.88883492    -0.09200
C4692       C  0.63997585  0.01233720  0.88912996    -0.06600
C4693       C  0.62265333  0.02850528  0.88351587    -0.00600
C4694       C  0.60121441  0.02036443  0.87637661    -0.09100
C4695       C  0.58182078  0.03677658  0.87049307     0.61300
H4696       H  0.58090054  0.99051252  0.87078181     0.12000
H4697       H  0.65633499  0.01880633  0.89474496     0.12000
C4698       C  0.65556174  0.97205502  0.89552480     0.61500
F4699       F  0.56215628  0.02533330  0.86414100    -0.23700
F4700       F  0.58834411  0.05063399  0.85235852    -0.21000
F4701       F  0.57658331  0.05027562  0.88935074    -0.20700
F4702       F  0.66066919  0.95767144  0.87730019    -0.20700
F4703       F  0.64905882  0.95912318  0.91434383    -0.21000
F4704       F  0.67529497  0.98367147  0.90132929    -0.23700
C4705       C  0.60013580  0.87117016  0.00310248    -0.06600
C4706       C  0.61467898  0.88162134  0.98651687    -0.00600
C4707       C  0.63422206  0.89324617  0.99456005    -0.09200
C4708       C  0.63779631  0.89478382  0.01854861    -0.06600
C4709       C  0.62242645  0.88561054  0.03504165    -0.00600
C4710       C  0.60353321  0.87302946  0.02705424    -0.09100
C4711       C  0.58644678  0.86245235  0.04357550     0.61300
H4712       H  0.58539962  0.86180075  0.99728170     0.12000
H4713       H  0.65257165  0.90401755  0.02464728     0.12000
C4714       C  0.65097266  0.90448587  0.97816692     0.61500
F4715       F  0.56949380  0.85050294  0.03229143    -0.23700
F4716       F  0.57606589  0.87957664  0.05638793    -0.21000
F4717       F  0.59752695  0.84721603  0.05803999    -0.20700
F4718       F  0.63990759  0.92157520  0.96590389    -0.20700
F4719       F  0.65980804  0.88826678  0.96318815    -0.21000
F4720       F  0.66915412  0.91434321  0.98960513    -0.23700
C4721       C  0.37576429  0.76119779  0.11098999    -0.06600
C4722       C  0.36862069  0.77759621  0.12770774    -0.00600
C4723       C  0.35896532  0.76931514  0.14838336    -0.09200
C4724       C  0.35739099  0.74530999  0.15169049    -0.06600
C4725       C  0.36445275  0.72911673  0.13491431    -0.00600
C4726       C  0.37367971  0.73726615  0.11409794    -0.09100
C4727       C  0.38039659  0.72090291  0.09487299     0.61300
H4728       H  0.38284468  0.76719482  0.09492440     0.12000
H4729       H  0.35001207  0.73894066  0.16750737     0.12000
C4730       C  0.35005307  0.78550520  0.16674632     0.61500
F4731       F  0.38820331  0.73239597  0.07561404    -0.23700
F4732       F  0.36165294  0.70804623  0.08846033    -0.21000
F4733       F  0.39770882  0.70640606  0.10224507    -0.20700
F4734       F  0.33264422  0.79895122  0.15779572    -0.20700
F4735       F  0.36757975  0.79935064  0.17433591    -0.21000
F4736       F  0.34137032  0.77382201  0.18553648    -0.23700
C4737       C  0.25596444  0.89109422  0.12016801    -0.06600
C4738       C  0.27249386  0.87643604  0.13054345    -0.00600
C4739       C  0.26461122  0.85786132  0.14385483    -0.09200
C4740       C  0.24076949  0.85491617  0.14654115    -0.06600
C4741       C  0.22420652  0.86875832  0.13510510    -0.00600
C4742       C  0.23213108  0.88715793  0.12148500    -0.09100
C4743       C  0.21584050  0.90192218  0.10750134     0.61300
H4744       H  0.26189109  0.90537586  0.10999958     0.12000
H4745       H  0.23500456  0.84087168  0.15710476     0.12000
C4746       C  0.28106502  0.84038916  0.15405125     0.61500
F4747       F  0.22725440  0.91814976  0.09449500    -0.23700
F4748       F  0.20083655  0.91336517  0.12197011    -0.21000
F4749       F  0.20370825  0.88819818  0.09257132    -0.20700
F4750       F  0.29528242  0.85099732  0.16964790    -0.20700
F4751       F  0.29405998  0.83056234  0.13670178    -0.21000
F4752       F  0.26974718  0.82289998  0.16537765    -0.23700
C4753       C  0.49019600  0.88052530  0.10704913    -0.06600
C4754       C  0.47412890  0.88381921  0.12508389    -0.00600
C4755       C  0.48271611  0.88884654  0.14724350    -0.09200
C4756       C  0.50680945  0.89016594  0.15037272    -0.06600
C4757       C  0.52274637  0.88650603  0.13228525    -0.00600
C4758       C  0.51411975  0.88186951  0.11019995    -0.09100
C4759       C  0.53013167  0.87930559  0.08981671     0.61300
H4760       H  0.48385844  0.87698098  0.08998796     0.12000
H4761       H  0.51348379  0.89452514  0.16712817     0.12000
C4762       C  0.46670205  0.89252045  0.16749861     0.61500
F4763       F  0.51839366  0.87633638  0.06943944    -0.23700
F4764       F  0.54414806  0.86038969  0.09311290    -0.21000
F4765       F  0.54339707  0.89876465  0.08763733    -0.20700
F4766       F  0.45391064  0.87295621  0.17111567    -0.20700
F4767       F  0.45220780  0.91086551  0.16315249    -0.21000
F4768       F  0.47849400  0.89722253  0.18751067    -0.23700
C4769       C  0.47893018  0.86955421  0.01116916    -0.06600
C4770       C  0.46069369  0.88509179  0.00865232    -0.00600
C4771       C  0.46171035  0.90239573  0.99155257    -0.09200
C4772       C  0.48020062  0.90207366  0.97627471    -0.06600
C4773       C  0.49696909  0.88478450  0.97702650    -0.00600
C4774       C  0.49704796  0.86873610  0.99539763    -0.09100
C4775       C  0.51518911  0.85008717  0.99798243     0.61300
H4776       H  0.47805881  0.85681788  0.02471298     0.12000
H4777       H  0.48083376  0.91454879  0.96249452     0.12000
C4778       C  0.44327127  0.92071852  0.98864118     0.61500
F4779       F  0.51171811  0.83679072  0.01740028    -0.23700
F4780       F  0.53646600  0.86007802  0.99989175    -0.21000
F4781       F  0.51485999  0.83555964  0.97920887    -0.20700
F4782       F  0.43792942  0.93039283  0.00968228    -0.20700
F4783       F  0.42388500  0.91121803  0.97910823    -0.21000
F4784       F  0.45037371  0.93819997  0.97422520    -0.23700
C4785       C  0.38881057  0.01271530  0.14782504    -0.06600
C4786       C  0.38181517  0.02855391  0.13072039    -0.00600
C4787       C  0.37108840  0.02011938  0.11089178    -0.09200
C4788       C  0.36889705  0.99622484  0.10826929    -0.06600
C4789       C  0.37654183  0.98011421  0.12493562    -0.00600
C4790       C  0.38603126  0.98869784  0.14553084    -0.09100
C4791       C  0.39275728  0.97293142  0.16515775     0.61300
H4792       H  0.39687510  0.01938749  0.16313106     0.12000
H4793       H  0.36123940  0.99005032  0.09261090     0.12000
C4794       C  0.36278059  0.03618458  0.09216035     0.61500
F4795       F  0.40044859  0.98506020  0.18403138    -0.23700
F4796       F  0.41011023  0.95823406  0.15821994    -0.21000
F4797       F  0.37396668  0.96032481  0.17202046    -0.20700
F4798       F  0.38100511  0.04865103  0.08372098    -0.20700
F4799       F  0.34639722  0.05095629  0.10106276    -0.21000
F4800       F  0.35303554  0.02451946  0.07400299    -0.23700
C4801       C  0.25795407  0.11405238  0.89759105    -0.06600
C4802       C  0.27403955  0.12387375  0.88221168    -0.00600
C4803       C  0.26551078  0.13813349  0.86449246    -0.09200
C4804       C  0.24152332  0.14009602  0.86158442    -0.06600
C4805       C  0.22537896  0.12874358  0.87586631    -0.00600
C4806       C  0.23394157  0.11644018  0.89498507    -0.09100
C4807       C  0.21804717  0.10581403  0.91258540     0.61300
H4808       H  0.26437907  0.10386430  0.91175500     0.12000
H4809       H  0.23525911  0.15046245  0.84751138     0.12000
C4810       C  0.28143278  0.15078033  0.84831026     0.61500
F4811       F  0.22995034  0.09594370  0.93063136    -0.23700
F4812       F  0.20509705  0.08892647  0.90235402    -0.21000
F4813       F  0.20378376  0.12258416  0.92162219    -0.20700
F4814       F  0.29450116  0.13513708  0.83612824    -0.20700
F4815       F  0.29557616  0.16500569  0.86076954    -0.21000
F4816       F  0.26962141  0.16427967  0.83269190    -0.23700
C4817       C  0.34212350  0.13250935  0.74994178    -0.06600
C4818       C  0.35997799  0.12845667  0.73386455    -0.00600
C4819       C  0.38218796  0.12377025  0.74226459    -0.09200
C4820       C  0.38549438  0.12281649  0.76627783    -0.06600
C4821       C  0.36746663  0.12613505  0.78222100    -0.00600
C4822       C  0.34543149  0.13134855  0.77388466    -0.09100
C4823       C  0.32529734  0.13467298  0.79005681     0.61300
H4824       H  0.32516854  0.13619383  0.74364090     0.12000
H4825       H  0.40224875  0.11855483  0.77288909     0.12000
C4826       C  0.40231533  0.11979629  0.72621007     0.61500
F4827       F  0.30510614  0.13894088  0.77836480    -0.23700
F4828       F  0.32940456  0.15314235  0.80431300    -0.21000
F4829       F  0.32232992  0.11510479  0.80315169    -0.20700
F4830       F  0.40511741  0.13870168  0.71212768    -0.20700
F4831       F  0.39847266  0.10054642  0.71294217    -0.21000
F4832       F  0.42253149  0.11633350  0.73808678    -0.23700
C4833       C  0.49028775  0.12049091  0.86274753    -0.06600
C4834       C  0.47527401  0.12044184  0.88191573    -0.00600
C4835       C  0.48486275  0.12193215  0.90408300    -0.09200
C4836       C  0.50888608  0.12312674  0.90629277    -0.06600
C4837       C  0.52402624  0.12355259  0.88723283    -0.00600
C4838       C  0.51442788  0.12253131  0.86498111    -0.09100
C4839       C  0.52948421  0.12424920  0.84383037     0.61300
H4840       H  0.48285640  0.11886123  0.84579764     0.12000
H4841       H  0.51611785  0.12405446  0.92340424     0.12000
C4842       C  0.46981991  0.12178551  0.92539059     0.61500
F4843       F  0.51681112  0.12388355  0.82379119    -0.23700
F4844       F  0.54469424  0.10598340  0.84331755    -0.21000
F4845       F  0.54156201  0.14457585  0.84435287    -0.20700
F4846       F  0.45678688  0.10206951  0.92587153    -0.20700
F4847       F  0.45550711  0.14077586  0.92513591    -0.21000
F4848       F  0.48254684  0.12248078  0.94539272    -0.23700
C4849       C  0.50314558  0.99041623  0.87295633    -0.06600
C4850       C  0.50109878  0.97373013  0.89020132    -0.00600
C4851       C  0.48484949  0.97681291  0.90793432    -0.09200
C4852       C  0.46772518  0.99345630  0.90491592    -0.06600
C4853       C  0.46748474  0.00775703  0.88548357    -0.00600
C4854       C  0.48664595  0.00782728  0.87041264    -0.09100
C4855       C  0.48913748  0.02489099  0.85082092     0.61300
H4856       H  0.51655976  0.98859103  0.86030179     0.12000
H4857       H  0.45379725  0.99453767  0.91715659     0.12000
C4858       C  0.48518975  0.96244656  0.92966540     0.61500
F4859       F  0.50986868  0.02239893  0.83948310    -0.23700
F4860       F  0.48813714  0.04703258  0.85934117    -0.21000
F4861       F  0.47189418  0.02169857  0.83495357    -0.20700
F4862       F  0.50752942  0.95876782  0.93668834    -0.20700
F4863       F  0.47475917  0.94160650  0.92581487    -0.21000
F4864       F  0.47370459  0.97348316  0.94735679    -0.23700
C4865       C  0.38074948  0.09904409  0.99870562    -0.06600
C4866       C  0.38118903  0.11751783  0.98289988    -0.00600
C4867       C  0.38289679  0.14004936  0.99173470    -0.09200
C4868       C  0.38396035  0.14316161  0.01587883    -0.06600
C4869       C  0.38348890  0.12463936  0.03160389    -0.00600
C4870       C  0.38219669  0.10213019  0.02272625    -0.09100
C4871       C  0.38353588  0.08139478  0.03840978     0.61300
H4872       H  0.37958284  0.08176873  0.99201091     0.12000
H4873       H  0.38573149  0.16032668  0.02275916     0.12000
C4874       C  0.38353779  0.16067132  0.97588007     0.61500
F4875       F  0.38250381  0.06096332  0.02633223    -0.23700
F4876       F  0.36545184  0.08194223  0.05375258    -0.21000
F4877       F  0.40396625  0.08164837  0.05033794    -0.20700
F4878       F  0.36421473  0.16108049  0.96223148    -0.20700
F4879       F  0.40283914  0.15941399  0.96211693    -0.21000
F4880       F  0.38424841  0.18109800  0.98796233    -0.23700
C4881       C  0.35827511  0.96225629  0.98361572    -0.06600
C4882       C  0.37025651  0.96567992  0.00403123    -0.00600
C4883       C  0.38378148  0.98538397  0.00705922    -0.09200
C4884       C  0.38550401  0.00103402  0.98871078    -0.06600
C4885       C  0.37420618  0.99701275  0.96787095    -0.00600
C4886       C  0.35986921  0.97768212  0.96536169    -0.09100
C4887       C  0.34635439  0.97316253  0.94352728     0.61300
H4888       H  0.34802498  0.94688374  0.98187960     0.12000
H4889       H  0.39587738  0.01631548  0.99036232     0.12000
C4890       C  0.39645010  0.98936436  0.02936105     0.61500
F4891       F  0.33084614  0.95553588  0.94640291    -0.23700
F4892       F  0.36115058  0.96701458  0.92596820    -0.21000
F4893       F  0.33414546  0.99258081  0.93722150    -0.20700
F4894       F  0.41065845  0.97085813  0.03401156    -0.20700
F4895       F  0.38082381  0.99181997  0.04708566    -0.21000
F4896       F  0.40971255  0.00892272  0.02844550    -0.23700
C4897       C  0.36266557  0.65851892  0.76984354    -0.06600
C4898       C  0.37118554  0.64278513  0.78648571    -0.00600
C4899       C  0.37924112  0.62121819  0.77861752    -0.09200
C4900       C  0.37963478  0.61684702  0.75470792    -0.06600
C4901       C  0.37301591  0.63336361  0.73812801    -0.00600
C4902       C  0.36372133  0.65435054  0.74591845    -0.09100
C4903       C  0.35648050  0.67281453  0.72905363     0.61300
H4904       H  0.35587474  0.67484196  0.77559231     0.12000
H4905       H  0.38641264  0.60059931  0.74863060     0.12000
C4906       C  0.38801557  0.60307598  0.79511628     0.61500
F4907       F  0.34792588  0.69214877  0.73993531    -0.23700
F4908       F  0.33959800  0.66450499  0.71477077    -0.21000
F4909       F  0.37520313  0.67925738  0.71608062    -0.20700
F4910       F  0.37106475  0.59758854  0.81078432    -0.20700
F4911       F  0.40697540  0.61126916  0.80655475    -0.21000
F4912       F  0.39443239  0.58310778  0.78389099    -0.23700
C4913       C  0.48523333  0.75063956  0.89561493    -0.06600
C4914       C  0.46847498  0.75174266  0.87850985    -0.00600
C4915       C  0.47122798  0.76663015  0.85964339    -0.09200
C4916       C  0.48816318  0.78333383  0.86090216    -0.06600
C4917       C  0.50265899  0.78476296  0.87999225    -0.00600
C4918       C  0.50231094  0.76726804  0.89701467    -0.09100
C4919       C  0.51805852  0.76710531  0.91776363     0.61300
H4920       H  0.48326610  0.73839958  0.90938899     0.12000
H4921       H  0.48928844  0.79604313  0.84742386     0.12000
C4922       C  0.45627440  0.76614125  0.83845851     0.61500
F4923       F  0.51474693  0.74803213  0.93156539    -0.23700
F4924       F  0.51400491  0.78638175  0.93106155    -0.21000
F4925       F  0.54058847  0.76673009  0.91054643    -0.20700
F4926       F  0.44187837  0.78506170  0.83861528    -0.20700
F4927       F  0.44335453  0.74638994  0.83713322    -0.21000
F4928       F  0.46992563  0.76695878  0.81901696    -0.23700
C4929       C  0.49296287  0.65853354  0.89377682    -0.06600
C4930       C  0.47650562  0.64315713  0.88473441    -0.00600
C4931       C  0.48467497  0.62280184  0.87423583    -0.09200
C4932       C  0.50860650  0.61891348  0.87294887    -0.06600
C4933       C  0.52500196  0.63474172  0.88115623    -0.00600
C4934       C  0.51684933  0.65478459  0.89215552    -0.09100
C4935       C  0.53313371  0.67260361  0.90136226     0.61300
H4936       H  0.48706088  0.67408923  0.90202857     0.12000
H4937       H  0.51476483  0.60342483  0.86472273     0.12000
C4938       C  0.46847403  0.60535699  0.86408010     0.61500
F4939       F  0.52177937  0.69172311  0.90993553    -0.23700
F4940       F  0.54732281  0.67978957  0.88384912    -0.21000
F4941       F  0.54605959  0.66316205  0.91887938    -0.20700
F4942       F  0.45585141  0.61547009  0.84670700    -0.20700
F4943       F  0.45392192  0.59729583  0.88098583    -0.21000
F4944       F  0.48003851  0.58670376  0.85482356    -0.23700
C4945       C  0.34752792  0.62733001  0.01995326    -0.06600
C4946       C  0.36368729  0.63435182  0.03667606    -0.00600
C4947       C  0.38448346  0.64389272  0.02879430    -0.09200
C4948       C  0.38835333  0.64557640  0.00479958    -0.06600
C4949       C  0.37197539  0.63890504  0.98821722    -0.00600
C4950       C  0.35110440  0.62970326  0.99605711    -0.09100
C4951       C  0.33221945  0.62348666  0.97939524     0.61300
H4952       H  0.33140816  0.62022606  0.02570566     0.12000
H4953       H  0.40422974  0.65300514  0.99872629     0.12000
C4954       C  0.40223149  0.65283867  0.04542696     0.61500
F4955       F  0.31277363  0.61582741  0.99058173    -0.23700
F4956       F  0.33975709  0.60621707  0.96490160    -0.21000
F4957       F  0.32617661  0.64257153  0.96656614    -0.20700
F4958       F  0.40930853  0.63541705  0.05995329    -0.20700
F4959       F  0.39285694  0.67059940  0.05819136    -0.21000
F4960       F  0.42137390  0.66114099  0.03418533    -0.23700
C4961       C  0.34420215  0.76346159  0.98851553    -0.06600
C4962       C  0.36349577  0.74904269  0.98733131    -0.00600
C4963       C  0.37810710  0.74715805  0.00676315    -0.09200
C4964       C  0.37548375  0.76337721  0.02440762    -0.06600
C4965       C  0.35869070  0.78058791  0.02306815    -0.00600
C4966       C  0.34096477  0.77857173  0.00687012    -0.09100
C4967       C  0.31903476  0.79257746  0.00784469     0.61300
H4968       H  0.33208531  0.76367411  0.97459669     0.12000
H4969       H  0.38817039  0.76431895  0.03787161     0.12000
C4970       C  0.39741802  0.72963373  0.00837276     0.61500
F4971       F  0.30052951  0.77807455  0.00578787    -0.23700
F4972       F  0.31871543  0.80811681  0.98989225    -0.21000
F4973       F  0.31654752  0.80425817  0.02840366    -0.20700
F4974       F  0.41369407  0.73389192  0.99163304    -0.20700
F4975       F  0.38874837  0.70777141  0.00569687    -0.21000
F4976       F  0.40825440  0.73034559  0.02946424    -0.23700
C4977       C  0.25825898  0.65555126  0.87875196    -0.06600
C4978       C  0.27505373  0.64156502  0.88960460    -0.00600
C4979       C  0.26750672  0.62239403  0.90237953    -0.09200
C4980       C  0.24373357  0.61835891  0.90412729    -0.06600
C4981       C  0.22699675  0.63299637  0.89418342    -0.00600
C4982       C  0.23450401  0.65186139  0.88100820    -0.09100
C4983       C  0.21771733  0.66857795  0.87007188     0.61300
H4984       H  0.26379265  0.67008924  0.86865595     0.12000
H4985       H  0.23800002  0.60373606  0.91400631     0.12000
C4986       C  0.28417931  0.60655523  0.91463655     0.61500
F4987       F  0.22870467  0.68609034  0.85845491    -0.23700
F4988       F  0.20406399  0.67845630  0.88687370    -0.21000
F4989       F  0.20417698  0.65713032  0.85445472    -0.20700
F4990       F  0.29645950  0.61889195  0.93063215    -0.20700
F4991       F  0.29900673  0.59669871  0.89887011    -0.21000
F4992       F  0.27313903  0.58899133  0.92613158    -0.23700
C4993       C  0.13736897  0.99401938  0.90169491    -0.06600
C4994       C  0.13305734  0.97863806  0.88337467    -0.00600
C4995       C  0.12583013  0.98761053  0.86215561    -0.09200
C4996       C  0.12398750  0.01152577  0.85976439    -0.06600
C4997       C  0.12857153  0.02717454  0.87783582    -0.00600
C4998       C  0.13509443  0.01814976  0.89938705    -0.09100
C4999       C  0.13954575  0.03367064  0.91973234     0.61300
H5000       H  0.14311631  0.98690910  0.91789039     0.12000
H5001       H  0.11921809  0.01815501  0.84308072     0.12000
C5002       C  0.12135817  0.97221739  0.84165156     0.61500
F5003       F  0.14477658  0.02127088  0.93935082    -0.23700
F5004       F  0.12029901  0.04685782  0.92429854    -0.21000
F5005       F  0.15778100  0.04788347  0.91488374    -0.20700
F5006       F  0.10471408  0.95637481  0.84714713    -0.20700
F5007       F  0.14134925  0.96090682  0.83557229    -0.21000
F5008       F  0.11376820  0.98447755  0.82273085    -0.23700
C5009       C  0.15176925  0.88523552  0.00278677    -0.06600
C5010       C  0.13684839  0.87575551  0.98609449    -0.00600
C5011       C  0.11765279  0.86337944  0.99397005    -0.09200
C5012       C  0.11385492  0.86160216  0.01787666    -0.06600
C5013       C  0.12923218  0.87027870  0.03446381    -0.00600
C5014       C  0.14864718  0.88228669  0.02668452    -0.09100
C5015       C  0.16651910  0.89110008  0.04327431     0.61300
H5016       H  0.16656669  0.89465930  0.99706334     0.12000
H5017       H  0.09895335  0.85243279  0.02383743     0.12000
C5018       C  0.10167423  0.85129295  0.97753725     0.61500
F5019       F  0.18499810  0.90072414  0.03196412    -0.23700
F5020       F  0.17470051  0.87318590  0.05657112    -0.21000
F5021       F  0.15689061  0.90770414  0.05730760    -0.20700
F5022       F  0.11397699  0.83564004  0.96450679    -0.20700
F5023       F  0.09122435  0.86717621  0.96330359    -0.21000
F5024       F  0.08468369  0.83937481  0.98899171    -0.23700
C5025       C  0.24096318  0.88512199  0.99921015    -0.06600
C5026       C  0.24363950  0.86891964  0.98153718    -0.00600
C5027       C  0.25875383  0.85026281  0.98467638    -0.09200
C5028       C  0.27476456  0.85153974  0.00231412    -0.06600
C5029       C  0.27493593  0.87003452  0.01767479    -0.00600
C5030       C  0.25633770  0.88586287  0.01770537    -0.09100
C5031       C  0.25344226  0.90437083  0.03585334     0.61300
H5032       H  0.22822259  0.89858355  0.99733625     0.12000
H5033       H  0.28801834  0.83846698  0.00337857     0.12000
C5034       C  0.25933417  0.82949185  0.96918132     0.61500
F5035       F  0.23265024  0.91570791  0.03384987    -0.23700
F5036       F  0.27059414  0.92046152  0.03367720    -0.21000
F5037       F  0.25418281  0.89457409  0.05749638    -0.20700
F5038       F  0.27684261  0.83185393  0.95334375    -0.20700
F5039       F  0.23876642  0.82657540  0.95788539    -0.21000
F5040       F  0.26324048  0.80997108  0.98215708    -0.23700
C5041       C  0.24638909  0.98943066  0.89301944    -0.06600
C5042       C  0.24662536  0.97355268  0.87494530    -0.00600
C5043       C  0.26055706  0.97748683  0.85552635    -0.09200
C5044       C  0.27704673  0.99467822  0.85682027    -0.06600
C5045       C  0.27909153  0.00856136  0.87637245    -0.00600
C5046       C  0.26244933  0.00713009  0.89418276    -0.09100
C5047       C  0.26244723  0.02264537  0.91520502     0.61300
H5048       H  0.23490920  0.98657997  0.90737956     0.12000
H5049       H  0.28905060  0.99666413  0.84274054     0.12000
C5050       C  0.25900898  0.96383073  0.83346802     0.61500
F5051       F  0.24414068  0.01827392  0.92970481    -0.23700
F5052       F  0.26078045  0.04535390  0.90844985    -0.21000
F5053       F  0.28230529  0.01923954  0.92764689    -0.20700
F5054       F  0.23911388  0.95119315  0.83222892    -0.20700
F5055       F  0.27767300  0.94922184  0.83181036    -0.21000
F5056       F  0.25917674  0.97868322  0.81490316    -0.23700
C5057       C  0.26116755  0.78469993  0.91773458    -0.06600
C5058       C  0.24611919  0.78395853  0.89902595    -0.00600
C5059       C  0.24438861  0.76337236  0.88606935    -0.09200
C5060       C  0.26153868  0.74667200  0.88898437    -0.06600
C5061       C  0.27944453  0.75008820  0.90455125    -0.00600
C5062       C  0.27726331  0.76728775  0.92135025    -0.09100
C5063       C  0.29155122  0.76796338  0.94293509     0.61300
H5064       H  0.26100037  0.79924746  0.92897569     0.12000
H5065       H  0.26244307  0.73226891  0.87733424     0.12000
C5066       C  0.22591834  0.75936217  0.86824612     0.61500
F5067       F  0.27722581  0.77026911  0.96174127    -0.23700
F5068       F  0.30617707  0.78649571  0.94209498    -0.21000
F5069       F  0.30410847  0.74799470  0.94596171    -0.20700
F5070       F  0.22876534  0.77415913  0.84989832    -0.20700
F5071       F  0.20457999  0.76272706  0.87808968    -0.21000
F5072       F  0.22662522  0.73716389  0.85978646    -0.23700
C5073       C  0.13957757  0.76298371  0.87061747    -0.06600
C5074       C  0.13531576  0.77854767  0.88880286    -0.00600
C5075       C  0.12947823  0.76969659  0.91054870    -0.09200
C5076       C  0.12846151  0.74565608  0.91337394    -0.06600
C5077       C  0.13259512  0.72988028  0.89518468    -0.00600
C5078       C  0.13825167  0.73887141  0.87333598    -0.09100
C5079       C  0.14293519  0.72331749  0.85300815     0.61300
H5080       H  0.14452750  0.76997377  0.85411686     0.12000
H5081       H  0.12418095  0.73902521  0.93018377     0.12000
C5082       C  0.12455656  0.78548927  0.93073937     0.61500
F5083       F  0.14678764  0.73566727  0.83304768    -0.23700
F5084       F  0.12436650  0.70924119  0.84931446    -0.21000
F5085       F  0.16215000  0.71005144  0.85734036    -0.20700
F5086       F  0.10509129  0.79832094  0.92621158    -0.20700
F5087       F  0.14277313  0.80007018  0.93431615    -0.21000
F5088       F  0.12094854  0.77337998  0.95086075    -0.23700
C5089       C  0.14167678  0.86236753  0.76800091    -0.06600
C5090       C  0.13379739  0.87865947  0.78439511    -0.00600
C5091       C  0.12060543  0.89739898  0.77645533    -0.09200
C5092       C  0.11730564  0.90004280  0.75260393    -0.06600
C5093       C  0.12611327  0.88446807  0.73597499    -0.00600
C5094       C  0.13763889  0.86462624  0.74404812    -0.09100
C5095       C  0.14507961  0.84571330  0.72771792     0.61300
H5096       H  0.15129591  0.84761653  0.77414195     0.12000
H5097       H  0.10783042  0.91497732  0.74684260     0.12000
C5098       C  0.11069572  0.91507680  0.79289748     0.61500
F5099       F  0.15450824  0.82716859  0.73925704    -0.23700
F5100       F  0.16131108  0.85388967  0.71250478    -0.21000
F5101       F  0.12629667  0.83797672  0.71564220    -0.20700
F5102       F  0.12824262  0.92585674  0.80440834    -0.20700
F5103       F  0.09631732  0.90448418  0.80847563    -0.21000
F5104       F  0.09799671  0.93171753  0.78169778    -0.23700
C5105       C  0.37751766  0.76220532  0.66595294    -0.06600
C5106       C  0.37784407  0.77761213  0.64716148    -0.00600
C5107       C  0.37925700  0.76832480  0.62472345    -0.09200
C5108       C  0.38090855  0.74415420  0.62207822    -0.06600
C5109       C  0.38024823  0.72886416  0.64093680    -0.00600
C5110       C  0.37842192  0.73815304  0.66326173    -0.09100
C5111       C  0.37782256  0.72275245  0.68421606     0.61300
H5112       H  0.37637163  0.76920173  0.68312653     0.12000
H5113       H  0.38284871  0.73691063  0.60507366     0.12000
C5114       C  0.37830394  0.78365377  0.60370345     0.61500
F5115       F  0.37662162  0.73515651  0.70447520    -0.23700
F5116       F  0.39736709  0.70924745  0.68488325    -0.21000
F5117       F  0.35874844  0.70891719  0.68308035    -0.20700
F5118       F  0.39688634  0.79820120  0.60352789    -0.20700
F5119       F  0.35829667  0.79647673  0.60407225    -0.21000
F5120       F  0.37872225  0.77109543  0.58353057    -0.23700
C5121       C  0.50580026  0.84546358  0.63849580    -0.06600
C5122       C  0.52139193  0.86382183  0.64105392    -0.00600
C5123       C  0.51258136  0.88597906  0.64551039    -0.09200
C5124       C  0.48861921  0.88911721  0.64629718    -0.06600
C5125       C  0.47305707  0.87085047  0.64355775    -0.00600
C5126       C  0.48183371  0.84851203  0.63998567    -0.09100
C5127       C  0.46612212  0.82791784  0.63877653     0.61300
H5128       H  0.51257398  0.82842522  0.63544793     0.12000
H5129       H  0.48174164  0.90607051  0.64972448     0.12000
C5130       C  0.52827088  0.90619347  0.64945798     0.61500
F5131       F  0.47817955  0.80761223  0.63562842    -0.23700
F5132       F  0.45117100  0.83047750  0.62059625    -0.21000
F5133       F  0.45376899  0.82611609  0.65900851    -0.20700
F5134       F  0.54219266  0.90936329  0.63047568    -0.20700
F5135       F  0.54162040  0.90205969  0.66862188    -0.21000
F5136       F  0.51616010  0.92634638  0.65315685    -0.23700
C5137       C  0.36663149  0.77450913  0.76068020    -0.06600
C5138       C  0.38436511  0.79044366  0.76014835    -0.00600
C5139       C  0.40270375  0.78813141  0.77567457    -0.09200
C5140       C  0.40032198  0.77310017  0.79431803    -0.06600
C5141       C  0.38115740  0.75894732  0.79648966    -0.00600
C5142       C  0.36473048  0.75846681  0.77848645    -0.09100
C5143       C  0.34452191  0.74222118  0.77837102     0.61300
H5144       H  0.35317113  0.77589860  0.74800588     0.12000
H5145       H  0.41352584  0.77245805  0.80734386     0.12000
C5146       C  0.42482903  0.80108176  0.77316684     0.61500
F5147       F  0.33069630  0.74538114  0.75935510    -0.23700
F5148       F  0.33112466  0.74571591  0.79770120    -0.21000
F5149       F  0.35246869  0.71985109  0.77783857    -0.20700
F5150       F  0.42531183  0.81845002  0.78928857    -0.20700
F5151       F  0.42748582  0.81025289  0.75138312    -0.21000
F5152       F  0.44299840  0.78620438  0.77688122    -0.23700
C5153       C  0.46795468  0.85437888  0.77108314    -0.06600
C5154       C  0.46835374  0.87242114  0.75508605    -0.00600
C5155       C  0.48825308  0.88618600  0.75346136    -0.09200
C5156       C  0.50433597  0.88485255  0.77135741    -0.06600
C5157       C  0.50157067  0.86937499  0.78962979    -0.00600
C5158       C  0.48493404  0.85204074  0.78789438    -0.09100
C5159       C  0.48449238  0.83154089  0.80395443     0.61300
H5160       H  0.45389037  0.84275088  0.77098313     0.12000
H5161       H  0.51815023  0.89707143  0.77202772     0.12000
C5162       C  0.49219374  0.90296392  0.73391541     0.61500
F5163       F  0.47471912  0.81289020  0.79331702    -0.23700
F5164       F  0.47191645  0.83674436  0.82344200    -0.21000
F5165       F  0.50649386  0.82515422  0.81010509    -0.20700
F5166       F  0.47669589  0.92093941  0.73536251    -0.20700
F5167       F  0.48980124  0.89181471  0.71308693    -0.21000
F5168       F  0.51402251  0.91202198  0.73447801    -0.23700
C5169       C  0.38584188  0.99468186  0.64512163    -0.06600
C5170       C  0.36847625  0.97879673  0.63956402    -0.00600
C5171       C  0.34719647  0.98734338  0.63200217    -0.09200
C5172       C  0.34385661  0.01133266  0.63117561    -0.06600
C5173       C  0.36098778  0.02739195  0.63733834    -0.00600
C5174       C  0.38255875  0.01873269  0.64424052    -0.09100
C5175       C  0.40210452  0.03448508  0.65050102     0.61300
H5176       H  0.40220468  0.98796980  0.65078395     0.12000
H5177       H  0.32724808  0.01767088  0.62585978     0.12000
C5178       C  0.32783420  0.97138257  0.62556843     0.61500
F5179       F  0.42150125  0.02233670  0.65695361    -0.23700
F5180       F  0.39574169  0.04833577  0.66873186    -0.21000
F5181       F  0.40772684  0.04794906  0.63177399    -0.20700
F5182       F  0.32160731  0.95834353  0.64440857    -0.20700
F5183       F  0.33485643  0.95705366  0.60795092    -0.21000
F5184       F  0.30865404  0.98330251  0.61813231    -0.23700
C5185       C  0.34528053  0.97927606  0.76489997    -0.06600
C5186       C  0.36360998  0.97921126  0.74929219    -0.00600
C5187       C  0.37724300  0.99921584  0.74715190    -0.09200
C5188       C  0.37524579  0.01608774  0.76435991    -0.06600
C5189       C  0.35969222  0.01361246  0.78263956    -0.00600
C5190       C  0.34251679  0.99674974  0.78108940    -0.09100
C5191       C  0.32173632  0.99587419  0.79668104     0.61300
H5192       H  0.33356121  0.96497529  0.76519981     0.12000
H5193       H  0.38739638  0.03000643  0.76485855     0.12000
C5194       C  0.39467409  0.00237409  0.72800696     0.61500
F5195       F  0.30246130  0.99138908  0.78373210    -0.23700
F5196       F  0.31799219  0.01645075  0.80794390    -0.21000
F5197       F  0.32455368  0.97850040  0.81263209    -0.20700
F5198       F  0.38428033  0.99918131  0.70693880    -0.20700
F5199       F  0.41250193  0.98687586  0.73054255    -0.21000
F5200       F  0.40380834  0.02424131  0.72809065    -0.23700
C5201       C  0.26365116  0.87286280  0.75440732    -0.06600
C5202       C  0.27889367  0.89133277  0.75460432    -0.00600
C5203       C  0.27499176  0.90974098  0.76980968    -0.09200
C5204       C  0.25995284  0.90640789  0.78821173    -0.06600
C5205       C  0.24710730  0.88627582  0.79012452    -0.00600
C5206       C  0.24724054  0.87015676  0.77178807    -0.09100
C5207       C  0.23140982  0.84953006  0.77095991     0.61300
H5208       H  0.26595103  0.85948905  0.74170560     0.12000
H5209       H  0.25848053  0.91949936  0.80139914     0.12000
C5210       C  0.28633344  0.93280374  0.76700339     0.61500
F5211       F  0.23463560  0.83664397  0.75122534    -0.23700
F5212       F  0.20886387  0.85694398  0.77114534    -0.21000
F5213       F  0.23538920  0.83527740  0.78955605    -0.20700
F5214       F  0.29382988  0.93608007  0.74466636    -0.20700
F5215       F  0.30463581  0.93434338  0.78184198    -0.21000
F5216       F  0.27079033  0.95014937  0.77200809    -0.23700
C5217       C  0.25563367  0.86905017  0.65789786    -0.06600
C5218       C  0.27187989  0.87886669  0.64259605    -0.00600
C5219       C  0.26342013  0.88916546  0.62223902    -0.09200
C5220       C  0.23936914  0.89029376  0.61879846    -0.06600
C5221       C  0.22323573  0.88179275  0.63494217    -0.00600
C5222       C  0.23170183  0.87024406  0.65448740    -0.09100
C5223       C  0.21567203  0.85963364  0.67202737     0.61300
H5224       H  0.26173230  0.86053441  0.67320908     0.12000
H5225       H  0.23288546  0.89884800  0.60363742     0.12000
C5226       C  0.27938691  0.89968888  0.60459741     0.61500
F5227       F  0.22739753  0.84990385  0.69026458    -0.23700
F5228       F  0.20306904  0.84257742  0.66161148    -0.21000
F5229       F  0.20105430  0.87619792  0.68084140    -0.20700
F5230       F  0.29524345  0.88354412  0.59726654    -0.20700
F5231       F  0.29059240  0.91811337  0.61427691    -0.21000
F5232       F  0.26771259  0.90749633  0.58543298    -0.23700
loop_ 
_geom_bond_atom_site_label_1 
_geom_bond_atom_site_label_2 
_geom_bond_distance 
_geom_bond_site_symmetry_2 
_ccdc_geom_bond_type 
N1            N2   1.321       .  A
N1            N7   1.311       .  A
N1          Mn30   2.198       .  S
N2            C9   1.357       .  A
N3            N5   1.311       .  A
N3            N4   1.317       .  A
N3          Mn19   2.180       .  S
N4           C10   1.352       .  A
N5            N6   1.319       .  A
N5          Mn30   2.181       .  S
N6           C10   1.353       .  A
N7            N8   1.315       .  A
N7          Mn19   2.168       .  S
N8            C9   1.348       .  A
C9         C5202   1.471       .  S
C10        C5138   1.471       .  S
N11          N17   1.316       .  A
N11          N12   1.337       .  A
N11         Mn41   2.294       .  S
N12          C20   1.373       .  A
N13          N14   1.309       .  A
N13          N15   1.316       .  A
N13         Mn19   2.150       .  S
N14          C21   1.340       .  A
N15          N16   1.340       .  A
N15         Mn41   2.310       .  S
N16          C21   1.378       .  A
N17          N18   1.311       .  A
N17         Mn19   2.150       .  S
N18          C20   1.341       .  A
Mn19        Cl43   2.499       .  S
C20        C5106   1.507       .  S
C21        C5218   1.521       .  S
N22          N23   1.319       .  A
N22          N28   1.310       .  A
N22         Mn30   2.192       .  S
N23          C31   1.355       .  A
N24          N26   1.310       .  A
N24          N25   1.320       .  A
N24         Mn42   2.179       .  S
N25          C32   1.351       .  A
N26          N27   1.316       .  A
N26         Mn30   2.187       .  S
N27          C32   1.355       .  A
N28          N29   1.319       .  A
N28         Mn42   2.183       .  S
N29          C31   1.351       .  A
Mn30        Cl43   2.565       .  S
C31        C5154   1.484       .  S
C32        C5186   1.480       .  S
N33          N34   1.337       .  A
N33          N39   1.317       .  A
N33         Mn41   2.301       .  S
N34          C44   1.374       .  A
N35          N36   1.308       .  A
N35          N37   1.318       .  A
N35         Mn42   2.136       .  S
N36          C45   1.336       .  A
N37          N38   1.336       .  A
N37         Mn41   2.300       .  S
N38          C45   1.373       .  A
N39          N40   1.307       .  A
N39         Mn42   2.132       .  S
N40          C44   1.335       .  A
Mn41        Cl43   2.588       .  S
Mn42        Cl43   2.509       .  S
C44        C5170   1.497       .  S
C45        C5125   1.493       .  S
N46          N47   1.313       .  A
N46          N52   1.310       .  A
N46         Mn75   2.156       .  S
N47          C54   1.344       .  A
N48          N50   1.311       .  A
N48          N49   1.318       .  A
N48         Mn64   2.187       .  S
N49          C55   1.355       .  A
N50          N51   1.316       .  A
N50         Mn75   2.170       .  S
N51          C55   1.347       .  A
N52          N53   1.320       .  A
N52         Mn64   2.193       .  S
N53          C54   1.356       .  A
C54        C5205   1.469       .  S
C55        C5058   1.474       .  S
N56          N62   1.310       .  A
N56          N57   1.316       .  A
N56         Mn86   2.158       .  S
N57          C65   1.347       .  A
N58          N59   1.320       .  A
N58          N60   1.310       .  A
N58         Mn64   2.191       .  S
N59          C66   1.356       .  A
N60          N61   1.315       .  A
N60         Mn86   2.165       .  S
N61          C66   1.348       .  A
N62          N63   1.320       .  A
N62         Mn64   2.199       .  S
N63          C65   1.357       .  A
Mn64        Cl88   2.578       .  S
C65        C5026   1.472       .  S
C66        C5042   1.467       .  S
N67          N68   1.310       .  A
N67          N73   1.317       .  A
N67         Mn75   2.138       .  S
N68          C76   1.337       .  A
N69          N71   1.317       .  A
N69          N70   1.334       .  A
N69         Mn87   2.306       .  S
N70          C77   1.374       .  A
N71          N72   1.314       .  A
N71         Mn75   2.148       .  S
N72          C77   1.340       .  A
N73          N74   1.335       .  A
N73         Mn87   2.292       .  S
N74          C76   1.373       .  A
Mn75        Cl88   2.503       .  S
C76        C5074   1.494       .  S
C77        C5090   1.509       .  S
N78          N79   1.310       .  A
N78          N84   1.317       .  A
N78         Mn86   2.130       .  S
N79          C89   1.335       .  A
N80          N81   1.336       .  A
N80          N82   1.316       .  A
N80         Mn87   2.299       .  S
N81          C90   1.375       .  A
N82          N83   1.308       .  A
N82         Mn86   2.135       .  S
N83          C90   1.337       .  A
N84          N85   1.334       .  A
N84         Mn87   2.296       .  S
N85          C89   1.372       .  A
Mn86        Cl88   2.502       .  S
Mn87        Cl88   2.576       .  S
C89        C4994   1.491       .  S
C90        C5010   1.509       .  S
N91          N92   1.313       .  A
N91          N97   1.310       .  A
N91        Mn120   2.157       .  S
N92          C99   1.346       .  A
N93          N95   1.310       .  A
N93          N94   1.320       .  A
N93        Mn109   2.192       .  S
N94         C100   1.356       .  A
N95          N96   1.316       .  A
N95        Mn120   2.172       .  S
N96         C100   1.347       .  A
N97          N98   1.318       .  A
N97        Mn109   2.176       .  S
N98          C99   1.354       .  A
C99        C4914   1.461       .  S
C100       C4962   1.477       .  S
N101        N107   1.309       .  A
N101        N102   1.315       .  A
N101       Mn131   2.162       .  S
N102        C110   1.348       .  A
N103        N104   1.323       .  A
N103        N105   1.309       .  A
N103       Mn109   2.195       .  S
N104        C111   1.358       .  A
N105        N106   1.312       .  A
N105       Mn131   2.167       .  S
N106        C111   1.345       .  A
N107        N108   1.318       .  A
N107       Mn109   2.180       .  S
N108        C110   1.355       .  A
Mn109      Cl133   2.592       .  S
C110       C5061   1.469       .  S
C111       C5141   1.478       .  S
N112        N113   1.310       .  A
N112        N118   1.317       .  A
N112       Mn120   2.133       .  S
N113        C121   1.337       .  A
N114        N116   1.317       .  A
N114        N115   1.339       .  A
N114       Mn132   2.311       .  S
N115        C122   1.377       .  A
N116        N117   1.308       .  A
N116       Mn120   2.142       .  S
N117        C122   1.338       .  A
N118        N119   1.337       .  A
N118       Mn132   2.310       .  S
N119        C121   1.375       .  A
Mn120      Cl133   2.491       .  S
C121       C4949   1.504       .  S
C122       C4930   1.516       .  S
N123        N124   1.311       .  A
N123        N129   1.317       .  A
N123       Mn131   2.139       .  S
N124        C134   1.339       .  A
N125        N126   1.336       .  A
N125        N127   1.316       .  A
N125       Mn132   2.294       .  S
N126        C135   1.374       .  A
N127        N128   1.308       .  A
N127       Mn131   2.142       .  S
N128        C135   1.339       .  A
N129        N130   1.336       .  A
N129       Mn132   2.310       .  S
N130        C134   1.376       .  A
Mn131      Cl133   2.485       .  S
Mn132      Cl133   2.587       .  S
C134       C4898   1.515       .  S
C135       C4978   1.510       .  S
N136        N137   1.316       .  A
N136        N142   1.310       .  A
N136       Mn165   2.168       .  S
N137        C144   1.348       .  A
N138        N140   1.311       .  A
N138        N139   1.316       .  A
N138       Mn154   2.179       .  S
N139        C145   1.350       .  A
N140        N141   1.319       .  A
N140       Mn165   2.184       .  S
N141        C145   1.351       .  A
N142        N143   1.317       .  A
N142       Mn154   2.184       .  S
N143        C144   1.354       .  A
C144       C5045   1.471       .  S
C145       C4885   1.462   1_545  S
N146        N152   1.310       .  A
N146        N147   1.317       .  A
N146       Mn176   2.174       .  S
N147        C155   1.349       .  A
N148        N149   1.318       .  A
N148        N150   1.310       .  A
N148       Mn154   2.185       .  S
N149        C156   1.354       .  A
N150        N151   1.320       .  A
N150       Mn176   2.190       .  S
N151        C156   1.353       .  A
N152        N153   1.318       .  A
N152       Mn154   2.180       .  S
N153        C155   1.354       .  A
Mn154      Cl178   2.566       .  S
C155       C4853   1.475       .  S
C156       C5189   1.479       .  S
N157        N158   1.310       .  A
N157        N163   1.317       .  A
N157       Mn165   2.144       .  S
N158        C166   1.339       .  A
N159        N161   1.317       .  A
N159        N160   1.338       .  A
N159       Mn177   2.307       .  S
N160        C167   1.375       .  A
N161        N162   1.312       .  A
N161       Mn165   2.157       .  S
N162        C167   1.341       .  A
N163        N164   1.337       .  A
N163       Mn177   2.306       .  S
N164        C166   1.375       .  A
Mn165      Cl178   2.513       .  S
C166       C4866   1.508       .  S
C167       C4802   1.515       .  S
N168        N169   1.308       .  A
N168        N174   1.318       .  A
N168       Mn176   2.136       .  S
N169        C179   1.336       .  A
N170        N171   1.336       .  A
N170        N172   1.320       .  A
N170       Mn177   2.313       .  S
N171        C180   1.374       .  A
N172        N173   1.315       .  A
N172       Mn176   2.159       .  S
N173        C180   1.340       .  A
N174        N175   1.336       .  A
N174       Mn177   2.296       .  S
N175        C179   1.372       .  A
Mn176      Cl178   2.517       .  S
Mn177      Cl178   2.572       .  S
C179       C4821   1.490       .  S
C180       C4834   1.504       .  S
N181        N182   1.318       .  A
N181        N187   1.309       .  A
N181       Mn210   2.176       .  S
N182        C189   1.351       .  A
N183        N185   1.309       .  A
N183        N184   1.313       .  A
N183       Mn199   2.159       .  S
N184        C190   1.347       .  A
N185        N186   1.317       .  A
N185       Mn210   2.177       .  S
N186        C190   1.354       .  A
N187        N188   1.315       .  A
N187       Mn199   2.170       .  S
N188        C189   1.352       .  A
C189       C4965   1.469       .  S
C190       C4770   1.469       .  S
N191        N197   1.311       .  A
N191        N192   1.321       .  A
N191       Mn221   2.187       .  S
N192        C200   1.353       .  A
N193        N194   1.314       .  A
N193        N195   1.309       .  A
N193       Mn199   2.169       .  S
N194        C201   1.353       .  A
N195        N196   1.318       .  A
N195       Mn221   2.177       .  S
N196        C201   1.350       .  A
N197        N198   1.313       .  A
N197       Mn199   2.164       .  S
N198        C200   1.347       .  A
Mn199      Cl223   2.550       .  S
C200       C4882   1.459       .  S
C201       C5029   1.474       .  S
N202        N203   1.311       .  A
N202        N208   1.317       .  A
N202       Mn210   2.149       .  S
N203        C211   1.341       .  A
N204        N206   1.316       .  A
N204        N205   1.340       .  A
N204       Mn222   2.314       .  S
N205        C212   1.378       .  A
N206        N207   1.307       .  A
N206       Mn210   2.130       .  S
N207        C212   1.335       .  A
N208        N209   1.338       .  A
N208       Mn222   2.313       .  S
N209        C211   1.376       .  A
Mn210      Cl223   2.510       .  S
C211       C4754   1.515       .  S
C212       C4722   1.513       .  S
N213        N214   1.307       .  A
N213        N219   1.317       .  A
N213       Mn221   2.131       .  S
N214        C224   1.335       .  A
N215        N216   1.338       .  A
N215        N217   1.318       .  A
N215       Mn222   2.302       .  S
N216        C225   1.375       .  A
N217        N218   1.307       .  A
N217       Mn221   2.142       .  S
N218        C225   1.338       .  A
N219        N220   1.338       .  A
N219       Mn222   2.307       .  S
N220        C224   1.376       .  A
Mn221      Cl223   2.509       .  S
Mn222      Cl223   2.583       .  S
C224       C4738   1.506       .  S
C225       C4789   1.509       .  S
N226        N227   1.320       .  A
N226        N232   1.308       .  A
N226       Mn255   2.180       .  S
N227        C234   1.353       .  A
N228        N230   1.308       .  A
N228        N229   1.316       .  A
N228       Mn244   2.182       .  S
N229        C235   1.353       .  A
N230        N231   1.317       .  A
N230       Mn255   2.164       .  S
N231        C235   1.351       .  A
N232        N233   1.317       .  A
N232       Mn244   2.180       .  S
N233        C234   1.353       .  A
C234       C5157   1.478       .  S
C235       C4850   1.471       .  S
N236        N242   1.309       .  A
N236        N237   1.316       .  A
N236       Mn266   2.166       .  S
N237        C245   1.348       .  A
N238        N239   1.316       .  A
N238        N240   1.310       .  A
N238       Mn244   2.175       .  S
N239        C246   1.353       .  A
N240        N241   1.314       .  A
N240       Mn266   2.163       .  S
N241        C246   1.347       .  A
N242        N243   1.314       .  A
N242       Mn244   2.169       .  S
N243        C245   1.352       .  A
Mn244      Cl268   2.575       .  S
C245       C4773   1.471       .  S
C246       C4917   1.466       .  S
N247        N248   1.307       .  A
N247        N253   1.317       .  A
N247       Mn255   2.139       .  S
N248        C256   1.337       .  A
N249        N251   1.317       .  A
N249        N250   1.337       .  A
N249       Mn267   2.301       .  S
N250        C257   1.375       .  A
N251        N252   1.304       .  A
N251       Mn255   2.121       .  S
N252        C257   1.333       .  A
N253        N254   1.337       .  A
N253       Mn267   2.296       .  S
N254        C256   1.374       .  A
Mn255      Cl268   2.492       .  S
C256       C4690   1.507       .  S
C257       C4674   1.500       .  S
N258        N259   1.309       .  A
N258        N264   1.316       .  A
N258       Mn266   2.143       .  S
N259        C269   1.340       .  A
N260        N261   1.338       .  A
N260        N262   1.316       .  A
N260       Mn267   2.312       .  S
N261        C270   1.377       .  A
N262        N263   1.308       .  A
N262       Mn266   2.134       .  S
N263        C270   1.337       .  A
N264        N265   1.336       .  A
N264       Mn267   2.297       .  S
N265        C269   1.374       .  A
Mn266      Cl268   2.492       .  S
Mn267      Cl268   2.587       .  S
C269       C4658   1.511       .  S
C270       C4706   1.514       .  S
N271        N272   1.338       .  A
N271        N277   1.315       .  A
N271       Mn300   2.308       .  S
N272        C279   1.376       .  A
N273        N275   1.315       .  A
N273        N274   1.308       .  A
N273       Mn289   2.125       .  S
N274        C280   1.336       .  A
N275        N276   1.339       .  A
N275       Mn300   2.317       .  S
N276        C280   1.379       .  A
N277        N278   1.310       .  A
N277       Mn289   2.141       .  S
N278        C279   1.339       .  A
C279       C4645   1.514       .  S
C280       C4562   1.514       .  S
N281        N287   1.310       .  A
N281        N282   1.318       .  A
N281       Mn311   2.191       .  S
N282        C290   1.357       .  A
N283        N284   1.312       .  A
N283        N285   1.310       .  A
N283       Mn289   2.152       .  S
N284        C291   1.344       .  A
N285        N286   1.319       .  A
N285       Mn311   2.190       .  S
N286        C291   1.356       .  A
N287        N288   1.316       .  A
N287       Mn289   2.170       .  S
N288        C290   1.348       .  A
Mn289      Cl313   2.495       .  S
C290       C4546   1.480       .  S
C291       C4626   1.464       .  S
N292        N293   1.338       .  A
N292        N298   1.317       .  A
N292       Mn300   2.316       .  S
N293        C301   1.377       .  A
N294        N296   1.318       .  A
N294        N295   1.309       .  A
N294       Mn312   2.137       .  S
N295        C302   1.336       .  A
N296        N297   1.338       .  A
N296       Mn300   2.309       .  S
N297        C302   1.375       .  A
N298        N299   1.310       .  A
N298       Mn312   2.139       .  S
N299        C301   1.337       .  A
Mn300      Cl313   2.587       .  S
C301       C4530   1.515       .  S
C302       C4594   1.500       .  S
N303        N304   1.318       .  A
N303        N309   1.311       .  A
N303       Mn311   2.189       .  S
N304        C314   1.354       .  A
N305        N306   1.316       .  A
N305        N307   1.310       .  A
N305       Mn312   2.168       .  S
N306        C315   1.347       .  A
N307        N308   1.319       .  A
N307       Mn311   2.193       .  S
N308        C315   1.357       .  A
N309        N310   1.319       .  A
N309       Mn312   2.178       .  S
N310        C314   1.351       .  A
Mn311      Cl313   2.569       .  S
Mn312      Cl313   2.505       .  S
C314       C4610   1.476       .  S
C315       C4581   1.477       .  S
N316        N317   1.313       .  A
N316        N322   1.310       .  A
N316       Mn345   2.163       .  S
N317        C324   1.346       .  A
N318        N320   1.309       .  A
N318        N319   1.319       .  A
N318       Mn334   2.182       .  S
N319        C325   1.356       .  A
N320        N321   1.316       .  A
N320       Mn345   2.182       .  S
N321        C325   1.349       .  A
N322        N323   1.321       .  A
N322       Mn334   2.196       .  S
N323        C324   1.356       .  A
C324       C4466   1.473       .  S
C325       C4450   1.482       .  S
N326        N332   1.311       .  A
N326        N327   1.315       .  A
N326       Mn356   2.161       .  S
N327        C335   1.348       .  A
N328        N329   1.316       .  A
N328        N330   1.311       .  A
N328       Mn334   2.173       .  S
N329        C336   1.350       .  A
N330        N331   1.317       .  A
N330       Mn356   2.178       .  S
N331        C336   1.351       .  A
N332        N333   1.317       .  A
N332       Mn334   2.189       .  S
N333        C335   1.354       .  A
Mn334      Cl358   2.564       .  S
C335       C4482   1.462       .  S
C336       C4629   1.463       .  S
N337        N338   1.308       .  A
N337        N343   1.316       .  A
N337       Mn345   2.128       .  S
N338        C346   1.336       .  A
N339        N341   1.317       .  A
N339        N340   1.336       .  A
N339       Mn357   2.297       .  S
N340        C347   1.372       .  A
N341        N342   1.312       .  A
N341       Mn345   2.151       .  S
N342        C347   1.340       .  A
N343        N344   1.337       .  A
N343       Mn357   2.308       .  S
N344        C346   1.377       .  A
Mn345      Cl358   2.503       .  S
C346       C4434   1.507       .  S
C347       C4418   1.501       .  S
N348        N349   1.310       .  A
N348        N354   1.317       .  A
N348       Mn356   2.135       .  S
N349        C359   1.337       .  A
N350        N351   1.337       .  A
N350        N352   1.318       .  A
N350       Mn357   2.310       .  S
N351        C360   1.374       .  A
N352        N353   1.313       .  A
N352       Mn356   2.150       .  S
N353        C360   1.338       .  A
N354        N355   1.336       .  A
N354       Mn357   2.304       .  S
N355        C359   1.373       .  A
Mn356      Cl358   2.513       .  S
Mn357      Cl358   2.578       .  S
C359       C4514   1.496       .  S
C360       C4498   1.501       .  S
N361        N362   1.321       .  A
N361        N367   1.309       .  A
N361       Mn390   2.189       .  S
N362        C369   1.356       .  A
N363        N365   1.308       .  A
N363        N364   1.317       .  A
N363       Mn379   2.167       .  S
N364        C370   1.352       .  A
N365        N366   1.314       .  A
N365       Mn390   2.161       .  S
N366        C370   1.347       .  A
N367        N368   1.315       .  A
N367       Mn379   2.165       .  S
N368        C369   1.349       .  A
C369       C4549   1.474       .  S
C370       C4485   1.462       .  S
N371        N377   1.310       .  A
N371        N372   1.315       .  A
N371       Mn401   2.170       .  S
N372        C380   1.348       .  A
N373        N374   1.313       .  A
N373        N375   1.309       .  A
N373       Mn379   2.168       .  S
N374        C381   1.349       .  A
N375        N376   1.319       .  A
N375       Mn401   2.177       .  S
N376        C381   1.351       .  A
N377        N378   1.315       .  A
N377       Mn379   2.169       .  S
N378        C380   1.350       .  A
Mn379      Cl403   2.558       .  S
C380       C4386   1.448       .  S
C381       C4338   1.452       .  S
N382        N383   1.312       .  A
N382        N388   1.319       .  A
N382       Mn390   2.146       .  S
N383        C391   1.337       .  A
N384        N386   1.318       .  A
N384        N385   1.335       .  A
N384       Mn402   2.302       .  S
N385        C392   1.372       .  A
N386        N387   1.309       .  A
N386       Mn390   2.125       .  S
N387        C392   1.333       .  A
N388        N389   1.337       .  A
N388       Mn402   2.315       .  S
N389        C391   1.376       .  A
Mn390      Cl403   2.515       .  S
C391       C4405   1.505       .  S
C392       C4322   1.483       .  S
N393        N394   1.309       .  A
N393        N399   1.317       .  A
N393       Mn401   2.141       .  S
N394        C404   1.339       .  A
N395        N396   1.335       .  A
N395        N397   1.318       .  A
N395       Mn402   2.305       .  S
N396        C405   1.374       .  A
N397        N398   1.313       .  A
N397       Mn401   2.147       .  S
N398        C405   1.339       .  A
N399        N400   1.336       .  A
N399       Mn402   2.300       .  S
N400        C404   1.374       .  A
Mn401      Cl403   2.515       .  S
Mn402      Cl403   2.559       .  S
C404       C4354   1.509       .  S
C405       C4370   1.504       .  S
N406        N407   1.320       .  A
N406        N412   1.310       .  A
N406       Mn435   2.195       .  S
N407        C414   1.353       .  A
N408        N410   1.309       .  A
N408        N409   1.318       .  A
N408       Mn424   2.176       .  S
N409        C415   1.353       .  A
N410        N411   1.316       .  A
N410       Mn435   2.172       .  S
N411        C415   1.351       .  A
N412        N413   1.319       .  A
N412       Mn424   2.184       .  S
N413        C414   1.354       .  A
C414       C4613   1.485       .  S
C415       C4274   1.469       .  S
N416        N422   1.309       .  A
N416        N417   1.314       .  A
N416       Mn446   2.168       .  S
N417        C425   1.347       .  A
N418        N419   1.316       .  A
N418        N420   1.311       .  A
N418       Mn424   2.169       .  S
N419        C426   1.349       .  A
N420        N421   1.320       .  A
N420       Mn446   2.194       .  S
N421        C426   1.354       .  A
N422        N423   1.318       .  A
N422       Mn424   2.182       .  S
N423        C425   1.356       .  A
Mn424      Cl448   2.568       .  S
C425       C4309   1.476       .  S
C426       C4469   1.470   1_455  S
N427        N428   1.311       .  A
N427        N433   1.317       .  A
N427       Mn435   2.151       .  S
N428        C436   1.340       .  A
N429        N431   1.318       .  A
N429        N430   1.334       .  A
N429       Mn447   2.291       .  S
N430        C437   1.371       .  A
N431        N432   1.309       .  A
N431       Mn435   2.142       .  S
N432        C437   1.338       .  A
N433        N434   1.338       .  A
N433       Mn447   2.308       .  S
N434        C436   1.376       .  A
Mn435      Cl448   2.505       .  S
C436       C4258   1.516       .  S
C437       C4226   1.495       .  S
N438        N439   1.309       .  A
N438        N444   1.317       .  A
N438       Mn446   2.152       .  S
N439        C449   1.341       .  A
N440        N441   1.337       .  A
N440        N442   1.316       .  A
N440       Mn447   2.296       .  S
N441        C450   1.375       .  A
N442        N443   1.310       .  A
N442       Mn446   2.151       .  S
N443        C450   1.340       .  A
N444        N445   1.337       .  A
N444       Mn447   2.296       .  S
N445        C449   1.374       .  A
Mn446      Cl448   2.497       .  S
Mn447      Cl448   2.593       .  S
C449       C4245   1.511       .  S
C450       C4293   1.514       .  S
N451        N452   1.321       .  A
N451        N457   1.310       .  A
N451       Mn480   2.190       .  S
N452        C459   1.354       .  A
N453        N455   1.310       .  A
N453        N454   1.316       .  A
N453       Mn469   2.166       .  S
N454        C460   1.350       .  A
N455        N456   1.319       .  A
N455       Mn480   2.190       .  S
N456        C460   1.354       .  A
N457        N458   1.317       .  A
N457       Mn469   2.182       .  S
N458        C459   1.352       .  A
C459       C4453   1.477       .  S
C460       C4306   1.473       .  S
N461        N467   1.311       .  A
N461        N462   1.317       .  A
N461       Mn491   2.181       .  S
N462        C470   1.350       .  A
N463        N464   1.314       .  A
N463        N465   1.308       .  A
N463       Mn469   2.166       .  S
N464        C471   1.350       .  A
N465        N466   1.316       .  A
N465       Mn491   2.165       .  S
N466        C471   1.349       .  A
N467        N468   1.320       .  A
N467       Mn469   2.190       .  S
N468        C470   1.354       .  A
Mn469      Cl493   2.563       .  S
C470       C4197   1.474       .  S
C471       C4389   1.445       .  S
N472        N473   1.310       .  A
N472        N478   1.319       .  A
N472       Mn480   2.145       .  S
N473        C481   1.338       .  A
N474        N476   1.317       .  A
N474        N475   1.340       .  A
N474       Mn492   2.307       .  S
N475        C482   1.376       .  A
N476        N477   1.307       .  A
N476       Mn480   2.145       .  S
N477        C482   1.338       .  A
N478        N479   1.339       .  A
N478       Mn492   2.320       .  S
N479        C481   1.377       .  A
Mn480      Cl493   2.506       .  S
C481       C4210   1.513       .  S
C482       C4146   1.512       .  S
N483        N484   1.308       .  A
N483        N489   1.316       .  A
N483       Mn491   2.140       .  S
N484        C494   1.337       .  A
N485        N486   1.338       .  A
N485        N487   1.316       .  A
N485       Mn492   2.310       .  S
N486        C495   1.376       .  A
N487        N488   1.307       .  A
N487       Mn491   2.133       .  S
N488        C495   1.337       .  A
N489        N490   1.339       .  A
N489       Mn492   2.312       .  S
N490        C494   1.377       .  A
Mn491      Cl493   2.499       .  S
Mn492      Cl493   2.593       .  S
C494       C4162   1.514       .  S
C495       C4181   1.513       .  S
N496        N497   1.316       .  A
N496        N502   1.310       .  A
N496       Mn525   2.167       .  S
N497        C504   1.348       .  A
N498        N500   1.311       .  A
N498        N499   1.319       .  A
N498       Mn514   2.181       .  S
N499        C505   1.354       .  A
N500        N501   1.315       .  A
N500       Mn525   2.181       .  S
N501        C505   1.351       .  A
N502        N503   1.315       .  A
N502       Mn514   2.167       .  S
N503        C504   1.349       .  A
C504       C4341   1.451       .  S
C505       C4194   1.469       .  S
N506        N512   1.309       .  A
N506        N507   1.319       .  A
N506       Mn536   2.181       .  S
N507        C515   1.351       .  A
N508        N509   1.314       .  A
N508        N510   1.310       .  A
N508       Mn514   2.169       .  S
N509        C516   1.350       .  A
N510        N511   1.320       .  A
N510       Mn536   2.181       .  S
N511        C516   1.354       .  A
N512        N513   1.315       .  A
N512       Mn514   2.164       .  S
N513        C515   1.351       .  A
Mn514      Cl538   2.565       .  S
C515       C4277   1.472       .  S
C516       C4578   1.468       .  S
N517        N518   1.311       .  A
N517        N523   1.315       .  A
N517       Mn525   2.145       .  S
N518        C526   1.340       .  A
N519        N521   1.318       .  A
N519        N520   1.339       .  A
N519       Mn537   2.319       .  S
N520        C527   1.376       .  A
N521        N522   1.315       .  A
N521       Mn525   2.165       .  S
N522        C527   1.343       .  A
N523        N524   1.336       .  A
N523       Mn537   2.299       .  S
N524        C526   1.374       .  A
Mn525      Cl538   2.512       .  S
C526       C4130   1.513       .  S
C527       C4082   1.520       .  S
N528        N529   1.311       .  A
N528        N534   1.318       .  A
N528       Mn536   2.141       .  S
N529        C539   1.337       .  A
N530        N531   1.337       .  A
N530        N532   1.320       .  A
N530       Mn537   2.317       .  S
N531        C540   1.375       .  A
N532        N533   1.310       .  A
N532       Mn536   2.142       .  S
N533        C540   1.337       .  A
N534        N535   1.333       .  A
N534       Mn537   2.291       .  S
N535        C539   1.370       .  A
Mn536      Cl538   2.521       .  S
Mn537      Cl538   2.566       .  S
C539       C4098   1.490       .  S
C540       C4114   1.501       .  S
N541        N542   1.316       .  A
N541        N547   1.310       .  A
N541       Mn570   2.179       .  S
N542        C549   1.352       .  A
N543        N545   1.310       .  A
N543        N544   1.318       .  A
N543       Mn559   2.175       .  S
N544        C550   1.350       .  A
N545        N546   1.315       .  A
N545       Mn570   2.181       .  S
N546        C550   1.354       .  A
N547        N548   1.316       .  A
N547       Mn559   2.156       .  S
N548        C549   1.346       .  A
C549       C4050   1.456       .  S
C550       C4018   1.475       .  S
N551        N557   1.314       .  A
N551        N552   1.340       .  A
N551       Mn581   2.312       .  S
N552        C560   1.378       .  A
N553        N554   1.312       .  A
N553        N555   1.317       .  A
N553       Mn559   2.151       .  S
N554        C561   1.340       .  A
N555        N556   1.336       .  A
N555       Mn581   2.304       .  S
N556        C561   1.374       .  A
N557        N558   1.307       .  A
N557       Mn559   2.124       .  S
N558        C560   1.336       .  A
Mn559      Cl583   2.513       .  S
C560       C4034   1.513       .  S
C561       C4066   1.508       .  S
N562        N563   1.316       .  A
N562        N568   1.309       .  A
N562       Mn570   2.175       .  S
N563        C571   1.354       .  A
N564        N566   1.312       .  A
N564        N565   1.322       .  A
N564       Mn582   2.213       .  S
N565        C572   1.359       .  A
N566        N567   1.317       .  A
N566       Mn570   2.180       .  S
N567        C572   1.349       .  A
N568        N569   1.317       .  A
N568       Mn582   2.175       .  S
N569        C571   1.350       .  A
Mn570      Cl583   2.554       .  S
C571       C4005   1.477       .  S
C572       C3986   1.490       .  S
N573        N574   1.335       .  A
N573        N579   1.317       .  A
N573       Mn581   2.293       .  S
N574        C584   1.371       .  A
N575        N576   1.314       .  A
N575        N577   1.319       .  A
N575       Mn582   2.169       .  S
N576        C585   1.342       .  A
N577        N578   1.336       .  A
N577       Mn581   2.302       .  S
N578        C585   1.374       .  A
N579        N580   1.311       .  A
N579       Mn582   2.154       .  S
N580        C584   1.343       .  A
Mn581      Cl583   2.580       .  S
Mn582      Cl583   2.518       .  S
C584       C3954   1.509       .  S
C585       C3970   1.512       .  S
N586        N587   1.316       .  A
N586        N592   1.310       .  A
N586       Mn615   2.169       .  S
N587        C594   1.349       .  A
N588        N590   1.311       .  A
N588        N589   1.318       .  A
N588       Mn604   2.184       .  S
N589        C595   1.353       .  A
N590        N591   1.315       .  A
N590       Mn615   2.170       .  S
N591        C595   1.347       .  A
N592        N593   1.315       .  A
N592       Mn604   2.180       .  S
N593        C594   1.353       .  A
C594       C3922   1.449       .  S
C595       C3874   1.467       .  S
N596        N602   1.310       .  A
N596        N597   1.317       .  A
N596       Mn626   2.181       .  S
N597        C605   1.350       .  A
N598        N599   1.317       .  A
N598        N600   1.310       .  A
N598       Mn604   2.181       .  S
N599        C606   1.353       .  A
N600        N601   1.319       .  A
N600       Mn626   2.180       .  S
N601        C606   1.352       .  A
N602        N603   1.318       .  A
N602       Mn604   2.182       .  S
N603        C605   1.355       .  A
Mn604      Cl628   2.564       .  S
C605       C3858   1.480       .  S
C606       C4021   1.476       .  S
N607        N608   1.310       .  A
N607        N613   1.317       .  A
N607       Mn615   2.150       .  S
N608        C616   1.340       .  A
N609        N611   1.315       .  A
N609        N610   1.338       .  A
N609       Mn627   2.303       .  S
N610        C617   1.376       .  A
N611        N612   1.308       .  A
N611       Mn615   2.132       .  S
N612        C617   1.337       .  A
N613        N614   1.339       .  A
N613       Mn627   2.308       .  S
N614        C616   1.376       .  A
Mn615      Cl628   2.499       .  S
C616       C3890   1.511       .  S
C617       C3906   1.512       .  S
N618        N619   1.309       .  A
N618        N624   1.318       .  A
N618       Mn626   2.140       .  S
N619        C629   1.336       .  A
N620        N621   1.335       .  A
N620        N622   1.317       .  A
N620       Mn627   2.298       .  S
N621        C630   1.373       .  A
N622        N623   1.310       .  A
N622       Mn626   2.143       .  S
N623        C630   1.340       .  A
N624        N625   1.336       .  A
N624       Mn627   2.300       .  S
N625        C629   1.374       .  A
Mn626      Cl628   2.505       .  S
Mn627      Cl628   2.588       .  S
C629       C3941   1.497       .  S
C630       C3842   1.510       .  S
N631        N632   1.315       .  A
N631        N637   1.312       .  A
N631       Mn660   2.167       .  S
N632        C639   1.346       .  A
N633        N635   1.312       .  A
N633        N634   1.319       .  A
N633       Mn649   2.190       .  S
N634        C640   1.355       .  A
N635        N636   1.316       .  A
N635       Mn660   2.179       .  S
N636        C640   1.351       .  A
N637        N638   1.320       .  A
N637       Mn649   2.195       .  S
N638        C639   1.356       .  A
C639       C4053   1.465       .  S
C640       C3861   1.476       .  S
N641        N647   1.311       .  A
N641        N642   1.315       .  A
N641       Mn671   2.153       .  S
N642        C650   1.345       .  A
N643        N644   1.315       .  A
N643        N645   1.312       .  A
N643       Mn649   2.194       .  S
N644        C651   1.353       .  A
N645        N646   1.320       .  A
N645       Mn671   2.174       .  S
N646        C651   1.351       .  A
N647        N648   1.317       .  A
N647       Mn649   2.190       .  S
N648        C650   1.353       .  A
Mn649      Cl673   2.570       .  S
C650       C3746   1.457       .  S
C651       C3810   1.475       .  S
N652        N653   1.314       .  A
N652        N658   1.317       .  A
N652       Mn660   2.149       .  S
N653        C661   1.340       .  A
N654        N656   1.317       .  A
N654        N655   1.335       .  A
N654       Mn672   2.290       .  S
N655        C662   1.372       .  A
N656        N657   1.311       .  A
N656       Mn660   2.159       .  S
N657        C662   1.343       .  A
N658        N659   1.336       .  A
N658       Mn672   2.302       .  S
N659        C661   1.373       .  A
Mn660      Cl673   2.507       .  S
C661       C3778   1.502       .  S
C662       C3826   1.511       .  S
N663        N664   1.306       .  A
N663        N669   1.317       .  A
N663       Mn671   2.124       .  S
N664        C674   1.334       .  A
N665        N666   1.336       .  A
N665        N667   1.317       .  A
N665       Mn672   2.292       .  S
N666        C675   1.373       .  A
N667        N668   1.308       .  A
N667       Mn671   2.142       .  S
N668        C675   1.337       .  A
N669        N670   1.338       .  A
N669       Mn672   2.304       .  S
N670        C674   1.375       .  A
Mn671      Cl673   2.510       .  S
Mn672      Cl673   2.578       .  S
C674       C3794   1.497       .  S
C675       C3762   1.498       .  S
N676        N677   1.317       .  A
N676        N682   1.310       .  A
N676       Mn705   2.184       .  S
N677        C684   1.353       .  A
N678        N680   1.310       .  A
N678        N679   1.317       .  A
N678       Mn694   2.175       .  S
N679        C685   1.352       .  A
N680        N681   1.320       .  A
N680       Mn705   2.187       .  S
N681        C685   1.352       .  A
N682        N683   1.318       .  A
N682       Mn694   2.178       .  S
N683        C684   1.353       .  A
C684       C4002   1.474       .  S
C685       C3701   1.478       .  S
N686        N692   1.311       .  A
N686        N687   1.319       .  A
N686       Mn716   2.190       .  S
N687        C695   1.353       .  A
N688        N689   1.316       .  A
N688        N690   1.310       .  A
N688       Mn694   2.172       .  S
N689        C696   1.351       .  A
N690        N691   1.314       .  A
N690       Mn716   2.154       .  S
N691        C696   1.344       .  A
N692        N693   1.316       .  A
N692       Mn694   2.176       .  S
N693        C695   1.352       .  A
Mn694      Cl718   2.570       .  S
C695       C3733   1.482   1_455  S
C696       C3925   1.444   1_455  S
N697        N698   1.308       .  A
N697        N703   1.318       .  A
N697       Mn705   2.152       .  S
N698        C706   1.340       .  A
N699        N701   1.318       .  A
N699        N700   1.336       .  A
N699       Mn717   2.302       .  S
N700        C707   1.372       .  A
N701        N702   1.313       .  A
N701       Mn705   2.151       .  S
N702        C707   1.339       .  A
N703        N704   1.337       .  A
N703       Mn717   2.297       .  S
N704        C706   1.374       .  A
Mn705      Cl718   2.511       .  S
C706       C3682   1.511       .  S
C707       C3650   1.500       .  S
N708        N709   1.313       .  A
N708        N714   1.317       .  A
N708       Mn716   2.158       .  S
N709        C719   1.342       .  A
N710        N711   1.336       .  A
N710        N712   1.318       .  A
N710       Mn717   2.311       .  S
N711        C720   1.374       .  A
N712        N713   1.312       .  A
N712       Mn716   2.139       .  S
N713        C720   1.337       .  A
N714        N715   1.334       .  A
N714       Mn717   2.295       .  S
N715        C719   1.373       .  A
Mn716      Cl718   2.514       .  S
Mn717      Cl718   2.570       .  S
C719       C3669   1.512       .  S
C720       C3714   1.499       .  S
N721        N722   1.315       .  A
N721        N727   1.311       .  A
N721       Mn750   2.153       .  S
N722        C729   1.344       .  A
N723        N725   1.313       .  A
N723        N724   1.320       .  A
N723       Mn739   2.204       .  S
N724        C730   1.356       .  A
N725        N726   1.316       .  A
N725       Mn750   2.167       .  S
N726        C730   1.346       .  A
N727        N728   1.319       .  A
N727       Mn739   2.203       .  S
N728        C729   1.357       .  A
C729       C3813   1.469       .  S
C730       C3637   1.463       .  S
N731        N737   1.312       .  A
N731        N732   1.317       .  A
N731       Mn761   2.173       .  S
N732        C740   1.349       .  A
N733        N734   1.318       .  A
N733        N735   1.311       .  A
N733       Mn739   2.196       .  S
N734        C741   1.357       .  A
N735        N736   1.318       .  A
N735       Mn761   2.175       .  S
N736        C741   1.350       .  A
N737        N738   1.321       .  A
N737       Mn739   2.208       .  S
N738        C740   1.358       .  A
Mn739      Cl763   2.569       .  S
C740       C3698   1.479       .  S
C741       C3989   1.487   1_545  S
N742        N743   1.308       .  A
N742        N748   1.317       .  A
N742       Mn750   2.120       .  S
N743        C751   1.331       .  A
N744        N746   1.316       .  A
N744        N745   1.339       .  A
N744       Mn762   2.309       .  S
N745        C752   1.376       .  A
N746        N747   1.307       .  A
N746       Mn750   2.134       .  S
N747        C752   1.337       .  A
N748        N749   1.337       .  A
N748       Mn762   2.308       .  S
N749        C751   1.374       .  A
Mn750      Cl763   2.505       .  S
C751       C3618   1.483       .  S
C752       C3586   1.506       .  S
N753        N754   1.313       .  A
N753        N759   1.316       .  A
N753       Mn761   2.153       .  S
N754        C764   1.343       .  A
N755        N756   1.340       .  A
N755        N757   1.316       .  A
N755       Mn762   2.314       .  S
N756        C765   1.378       .  A
N757        N758   1.309       .  A
N757       Mn761   2.142       .  S
N758        C765   1.338       .  A
N759        N760   1.333       .  A
N759       Mn762   2.290       .  S
N760        C764   1.371       .  A
Mn761      Cl763   2.505       .  S
Mn762      Cl763   2.589       .  S
C764       C3570   1.511       .  S
C765       C3602   1.518       .  S
N766        N767   1.317       .  A
N766        N772   1.311       .  A
N766       Mn795   2.168       .  S
N767        C774   1.349       .  A
N768        N770   1.311       .  A
N768        N769   1.320       .  A
N768       Mn784   2.197       .  S
N769        C775   1.356       .  A
N770        N771   1.315       .  A
N770       Mn795   2.175       .  S
N771        C775   1.350       .  A
N772        N773   1.317       .  A
N772       Mn784   2.183       .  S
N773        C774   1.354       .  A
C774       C3877   1.468       .  S
C775       C3730   1.480       .  S
N776        N782   1.311       .  A
N776        N777   1.318       .  A
N776       Mn806   2.167       .  S
N777        C785   1.347       .  A
N778        N779   1.322       .  A
N778        N780   1.311       .  A
N778       Mn784   2.206       .  S
N779        C786   1.358       .  A
N780        N781   1.314       .  A
N780       Mn806   2.162       .  S
N781        C786   1.347       .  A
N782        N783   1.318       .  A
N782       Mn784   2.195       .  S
N783        C785   1.353       .  A
Mn784      Cl808   2.578       .  S
C785       C3634   1.464       .  S
C786       C3749   1.462       .  S
N787        N788   1.307       .  A
N787        N793   1.316       .  A
N787       Mn795   2.135       .  S
N788        C796   1.336       .  A
N789        N791   1.317       .  A
N789        N790   1.333       .  A
N789       Mn807   2.283       .  S
N790        C797   1.371       .  A
N791        N792   1.312       .  A
N791       Mn795   2.158       .  S
N792        C797   1.343       .  A
N793        N794   1.341       .  A
N793       Mn807   2.314       .  S
N794        C796   1.379       .  A
Mn795      Cl808   2.495       .  S
C796       C3538   1.517       .  S
C797       C3506   1.509       .  S
N798        N799   1.308       .  A
N798        N804   1.316       .  A
N798       Mn806   2.123       .  S
N799        C809   1.333       .  A
N800        N801   1.338       .  A
N800        N802   1.318       .  A
N800       Mn807   2.305       .  S
N801        C810   1.375       .  A
N802        N803   1.309       .  A
N802       Mn806   2.143       .  S
N803        C810   1.337       .  A
N804        N805   1.341       .  A
N804       Mn807   2.319       .  S
N805        C809   1.377       .  A
Mn806      Cl808   2.503       .  S
Mn807      Cl808   2.583       .  S
C809       C3522   1.498       .  S
C810       C3554   1.502       .  S
N811        N812   1.316       .  A
N811        N817   1.311       .  A
N811       Mn840   2.188       .  S
N812        C819   1.354       .  A
N813        N815   1.311       .  A
N813        N814   1.317       .  A
N813       Mn829   2.174       .  S
N814        C820   1.348       .  A
N815        N816   1.318       .  A
N815       Mn840   2.190       .  S
N816        C820   1.355       .  A
N817        N818   1.318       .  A
N817       Mn829   2.172       .  S
N818        C819   1.349       .  A
C819       C3490   1.476       .  S
C820       C3458   1.476       .  S
N821        N827   1.316       .  A
N821        N822   1.338       .  A
N821       Mn851   2.307       .  S
N822        C830   1.376       .  A
N823        N824   1.311       .  A
N823        N825   1.317       .  A
N823       Mn829   2.147       .  S
N824        C831   1.340       .  A
N825        N826   1.336       .  A
N825       Mn851   2.304       .  S
N826        C831   1.374       .  A
N827        N828   1.308       .  A
N827       Mn829   2.140       .  S
N828        C830   1.338       .  A
Mn829      Cl853   2.506       .  S
C830       C3426   1.512       .  S
C831       C3685   1.511       .  S
N832        N833   1.322       .  A
N832        N838   1.311       .  A
N832       Mn840   2.201       .  S
N833        C841   1.358       .  A
N834        N836   1.311       .  A
N834        N835   1.316       .  A
N834       Mn852   2.161       .  S
N835        C842   1.346       .  A
N836        N837   1.320       .  A
N836       Mn840   2.199       .  S
N837        C842   1.354       .  A
N838        N839   1.316       .  A
N838       Mn852   2.172       .  S
N839        C841   1.348       .  A
Mn840      Cl853   2.568       .  S
C841       C3442   1.473       .  S
C842       C3474   1.460       .  S
N843        N844   1.337       .  A
N843        N849   1.317       .  A
N843       Mn851   2.313       .  S
N844        C854   1.376       .  A
N845        N846   1.306       .  A
N845        N847   1.316       .  A
N845       Mn852   2.124       .  S
N846        C855   1.334       .  A
N847        N848   1.337       .  A
N847       Mn851   2.297       .  S
N848        C855   1.375       .  A
N849        N850   1.311       .  A
N849       Mn852   2.141       .  S
N850        C854   1.338       .  A
Mn851      Cl853   2.592       .  S
Mn852      Cl853   2.499       .  S
C854       C3605   1.512       .  S
C855       C3413   1.499       .  S
N856        N857   1.320       .  A
N856        N862   1.309       .  A
N856       Mn885   2.189       .  S
N857        C864   1.355       .  A
N858        N860   1.310       .  A
N858        N859   1.318       .  A
N858       Mn874   2.176       .  S
N859        C865   1.351       .  A
N860        N861   1.315       .  A
N860       Mn885   2.175       .  S
N861        C865   1.350       .  A
N862        N863   1.313       .  A
N862       Mn874   2.151       .  S
N863        C864   1.345       .  A
C864       C3397   1.454       .  S
C865       C3378   1.457       .  S
N866        N872   1.316       .  A
N866        N867   1.337       .  A
N866       Mn896   2.308       .  S
N867        C875   1.376       .  A
N868        N869   1.307       .  A
N868        N870   1.316       .  A
N868       Mn874   2.138       .  S
N869        C876   1.337       .  A
N870        N871   1.339       .  A
N870       Mn896   2.303       .  S
N871        C876   1.377       .  A
N872        N873   1.308       .  A
N872       Mn874   2.124       .  S
N873        C875   1.336       .  A
Mn874      Cl898   2.494       .  S
C875       C3330   1.507       .  S
C876       C3797   1.511       .  S
N877        N878   1.314       .  A
N877        N883   1.309       .  A
N877       Mn885   2.170       .  S
N878        C886   1.351       .  A
N879        N881   1.311       .  A
N879        N880   1.320       .  A
N879       Mn897   2.185       .  S
N880        C887   1.352       .  A
N881        N882   1.314       .  A
N881       Mn885   2.170       .  S
N882        C887   1.350       .  A
N883        N884   1.317       .  A
N883       Mn897   2.166       .  S
N884        C886   1.351       .  A
Mn885      Cl898   2.554       .  S
C886       C3346   1.464       .  S
C887       C3362   1.468       .  S
N888        N889   1.337       .  A
N888        N894   1.318       .  A
N888       Mn896   2.313       .  S
N889        C899   1.375       .  A
N890        N891   1.309       .  A
N890        N892   1.319       .  A
N890       Mn897   2.141       .  S
N891        C900   1.336       .  A
N892        N893   1.337       .  A
N892       Mn896   2.306       .  S
N893        C900   1.373       .  A
N894        N895   1.308       .  A
N894       Mn897   2.123       .  S
N895        C899   1.333       .  A
Mn896      Cl898   2.585       .  S
Mn897      Cl898   2.511       .  S
C899       C3589   1.496       .  S
C900       C3314   1.495       .  S
N901        N902   1.337       .  A
N901        N907   1.317       .  A
N901       Mn930   2.298       .  S
N902        C909   1.374       .  A
N903        N905   1.318       .  A
N903        N904   1.312       .  A
N903       Mn919   2.151       .  S
N904        C910   1.341       .  A
N905        N906   1.337       .  A
N905       Mn930   2.310       .  S
N906        C910   1.375       .  A
N907        N908   1.308       .  A
N907       Mn919   2.142       .  S
N908        C909   1.337       .  A
C909       C5013   1.502       .  S
C910       C3973   1.518       .  S
N911        N917   1.311       .  A
N911        N912   1.317       .  A
N911       Mn941   2.182       .  S
N912        C920   1.353       .  A
N913        N914   1.316       .  A
N913        N915   1.310       .  A
N913       Mn919   2.174       .  S
N914        C921   1.348       .  A
N915        N916   1.317       .  A
N915       Mn941   2.178       .  S
N916        C921   1.355       .  A
N917        N918   1.316       .  A
N917       Mn919   2.171       .  S
N918        C920   1.349       .  A
Mn919      Cl943   2.501       .  S
C920       C3298   1.468       .  S
C921       C3266   1.474       .  S
N922        N923   1.338       .  A
N922        N928   1.317       .  A
N922       Mn930   2.301       .  S
N923        C931   1.375       .  A
N924        N926   1.316       .  A
N924        N925   1.307       .  A
N924       Mn942   2.134       .  S
N925        C932   1.337       .  A
N926        N927   1.338       .  A
N926       Mn930   2.306       .  S
N927        C932   1.376       .  A
N928        N929   1.310       .  A
N928       Mn942   2.152       .  S
N929        C931   1.340       .  A
Mn930      Cl943   2.584       .  S
C931       C3653   1.510       .  S
C932       C4741   1.511       .  S
N933        N934   1.319       .  A
N933        N939   1.310       .  A
N933       Mn941   2.187       .  S
N934        C944   1.355       .  A
N935        N936   1.314       .  A
N935        N937   1.310       .  A
N935       Mn942   2.167       .  S
N936        C945   1.350       .  A
N937        N938   1.319       .  A
N937       Mn941   2.178       .  S
N938        C945   1.354       .  A
N939        N940   1.319       .  A
N939       Mn942   2.183       .  S
N940        C944   1.352       .  A
Mn941      Cl943   2.580       .  S
Mn942      Cl943   2.498       .  S
C944       C3282   1.478       .  S
C945       C3253   1.468       .  S
N946        N947   1.336       .  A
N946        N952   1.317       .  A
N946       Mn975   2.312       .  S
N947        C954   1.376       .  A
N948        N950   1.319       .  A
N948        N949   1.311       .  A
N948       Mn964   2.139       .  S
N949        C955   1.335       .  A
N950        N951   1.337       .  A
N950       Mn975   2.314       .  S
N951        C955   1.374       .  A
N952        N953   1.311       .  A
N952       Mn964   2.140       .  S
N953        C954   1.339       .  A
C954       C3909   1.515       .  S
C955       C3170   1.493       .  S
N956        N962   1.310       .  A
N956        N957   1.322       .  A
N956       Mn986   2.195       .  S
N957        C965   1.357       .  A
N958        N959   1.316       .  A
N958        N960   1.309       .  A
N958       Mn964   2.167       .  S
N959        C966   1.350       .  A
N960        N961   1.315       .  A
N960       Mn986   2.170       .  S
N961        C966   1.351       .  A
N962        N963   1.316       .  A
N962       Mn964   2.179       .  S
N963        C965   1.349       .  A
Mn964      Cl988   2.508       .  S
C965       C3218   1.484       .  S
C966       C3237   1.464       .  S
N967        N968   1.340       .  A
N967        N973   1.316       .  A
N967       Mn975   2.321       .  S
N968        C976   1.379       .  A
N969        N971   1.319       .  A
N969        N970   1.312       .  A
N969       Mn987   2.154       .  S
N970        C977   1.340       .  A
N971        N972   1.338       .  A
N971       Mn975   2.312       .  S
N972        C977   1.374       .  A
N973        N974   1.309       .  A
N973       Mn987   2.135       .  S
N974        C976   1.337       .  A
Mn975      Cl988   2.575       .  S
C976       C3186   1.518       .  S
C977       C3666   1.506       .  S
N978        N979   1.318       .  A
N978        N984   1.310       .  A
N978       Mn986   2.186       .  S
N979        C989   1.354       .  A
N980        N981   1.316       .  A
N980        N982   1.310       .  A
N980       Mn987   2.179       .  S
N981        C990   1.352       .  A
N982        N983   1.316       .  A
N982       Mn986   2.167       .  S
N983        C990   1.352       .  A
N984        N985   1.316       .  A
N984       Mn987   2.167       .  S
N985        C989   1.348       .  A
Mn986      Cl988   2.578       .  S
Mn987      Cl988   2.506       .  S
C989       C3250   1.473       .  S
C990       C3205   1.468       .  S
N991        N992   1.319       .  A
N991        N997   1.310       .  A
N991      Mn1020   2.186       .  S
N992        C999   1.355       .  A
N993        N995   1.311       .  A
N993        N994   1.318       .  A
N993      Mn1009   2.178       .  S
N994       C1000   1.349       .  A
N995        N996   1.317       .  A
N995      Mn1020   2.190       .  S
N996       C1000   1.356       .  A
N997        N998   1.317       .  A
N997      Mn1009   2.179       .  S
N998        C999   1.350       .  A
C999       C3138   1.483       .  S
C1000      C3154   1.479       .  S
N1001      N1007   1.317       .  A
N1001      N1002   1.335       .  A
N1001     Mn1031   2.297       .  S
N1002      C1010   1.373       .  A
N1003      N1004   1.309       .  A
N1003      N1005   1.318       .  A
N1003     Mn1009   2.147       .  S
N1004      C1011   1.340       .  A
N1005      N1006   1.337       .  A
N1005     Mn1031   2.303       .  S
N1006      C1011   1.374       .  A
N1007      N1008   1.311       .  A
N1007     Mn1009   2.139       .  S
N1008      C1010   1.337       .  A
Mn1009    Cl1033   2.510       .  S
C1010      C3957   1.499       .  S
C1011      C4437   1.512       .  S
N1012      N1013   1.319       .  A
N1012      N1018   1.309       .  A
N1012     Mn1020   2.188       .  S
N1013      C1021   1.357       .  A
N1014      N1016   1.312       .  A
N1014      N1015   1.320       .  A
N1014     Mn1032   2.185       .  S
N1015      C1022   1.353       .  A
N1016      N1017   1.314       .  A
N1016     Mn1020   2.180       .  S
N1017      C1022   1.351       .  A
N1018      N1019   1.313       .  A
N1018     Mn1032   2.154       .  S
N1019      C1021   1.344       .  A
Mn1020    Cl1033   2.563       .  S
C1021      C3365   1.471       .  S
C1022      C3122   1.475       .  S
N1023      N1024   1.335       .  A
N1023      N1029   1.316       .  A
N1023     Mn1031   2.302       .  S
N1024      C1034   1.374       .  A
N1025      N1026   1.310       .  A
N1025      N1027   1.316       .  A
N1025     Mn1032   2.151       .  S
N1026      C1035   1.341       .  A
N1027      N1028   1.337       .  A
N1027     Mn1031   2.300       .  S
N1028      C1035   1.375       .  A
N1029      N1030   1.312       .  A
N1029     Mn1032   2.135       .  S
N1030      C1034   1.337       .  A
Mn1031    Cl1033   2.583       .  S
Mn1032    Cl1033   2.507       .  S
C1034      C4149   1.499       .  S
C1035      C3573   1.512       .  S
N1036      N1037   1.338       .  A
N1036      N1042   1.315       .  A
N1036     Mn1065   2.303       .  S
N1037      C1044   1.375       .  A
N1038      N1040   1.317       .  A
N1038      N1039   1.312       .  A
N1038     Mn1054   2.151       .  S
N1039      C1045   1.339       .  A
N1040      N1041   1.337       .  A
N1040     Mn1065   2.299       .  S
N1041      C1045   1.374       .  A
N1042      N1043   1.310       .  A
N1042     Mn1054   2.144       .  S
N1043      C1044   1.341       .  A
C1044      C4533   1.517       .  S
C1045      C3893   1.502       .  S
N1046      N1052   1.310       .  A
N1046      N1047   1.318       .  A
N1046     Mn1076   2.183       .  S
N1047      C1055   1.354       .  A
N1048      N1049   1.316       .  A
N1048      N1050   1.312       .  A
N1048     Mn1054   2.179       .  S
N1049      C1056   1.351       .  A
N1050      N1051   1.321       .  A
N1050     Mn1076   2.198       .  S
N1051      C1056   1.356       .  A
N1052      N1053   1.315       .  A
N1052     Mn1054   2.163       .  S
N1053      C1055   1.347       .  A
Mn1054    Cl1078   2.501       .  S
C1055      C3106   1.465       .  S
C1056      C3074   1.477       .  S
N1057      N1058   1.338       .  A
N1057      N1063   1.316       .  A
N1057     Mn1065   2.294       .  S
N1058      C1066   1.374       .  A
N1059      N1061   1.318       .  A
N1059      N1060   1.312       .  A
N1059     Mn1077   2.153       .  S
N1060      C1067   1.341       .  A
N1061      N1062   1.333       .  A
N1061     Mn1065   2.288       .  S
N1062      C1067   1.370       .  A
N1063      N1064   1.309       .  A
N1063     Mn1077   2.147       .  S
N1064      C1066   1.339       .  A
Mn1065    Cl1078   2.588       .  S
C1066      C3509   1.505       .  S
C1067      C4101   1.499       .  S
N1068      N1069   1.318       .  A
N1068      N1074   1.310       .  A
N1068     Mn1076   2.180       .  S
N1069      C1079   1.353       .  A
N1070      N1071   1.316       .  A
N1070      N1072   1.312       .  A
N1070     Mn1077   2.170       .  S
N1071      C1080   1.348       .  A
N1072      N1073   1.320       .  A
N1072     Mn1076   2.203       .  S
N1073      C1080   1.356       .  A
N1074      N1075   1.318       .  A
N1074     Mn1077   2.185       .  S
N1075      C1079   1.351       .  A
Mn1076    Cl1078   2.568       .  S
Mn1077    Cl1078   2.503       .  S
C1079      C3090   1.479       .  S
C1080      C3058   1.464       .  S
N1081      N1082   1.315       .  A
N1081      N1087   1.310       .  A
N1081     Mn1110   2.176       .  S
N1082      C1089   1.352       .  A
N1083      N1085   1.309       .  A
N1083      N1084   1.319       .  A
N1083     Mn1099   2.174       .  S
N1084      C1090   1.350       .  A
N1085      N1086   1.316       .  A
N1085     Mn1110   2.176       .  S
N1086      C1090   1.350       .  A
N1087      N1088   1.319       .  A
N1087     Mn1099   2.185       .  S
N1088      C1089   1.353       .  A
C1089      C3013   1.469       .  S
C1090      C3045   1.456       .  S
N1091      N1097   1.318       .  A
N1091      N1092   1.339       .  A
N1091     Mn1121   2.319       .  S
N1092      C1100   1.377       .  A
N1093      N1094   1.301       .  A
N1093      N1095   1.315       .  A
N1093     Mn1099   2.117       .  S
N1094      C1101   1.332       .  A
N1095      N1096   1.341       .  A
N1095     Mn1121   2.306       .  S
N1096      C1101   1.378       .  A
N1097      N1098   1.307       .  A
N1097     Mn1099   2.130       .  S
N1098      C1100   1.336       .  A
Mn1099    Cl1123   2.503       .  S
C1100      C4421   1.508       .  S
C1101      C4997   1.504       .  S
N1102      N1103   1.316       .  A
N1102      N1108   1.310       .  A
N1102     Mn1110   2.163       .  S
N1103      C1111   1.351       .  A
N1104      N1106   1.309       .  A
N1104      N1105   1.315       .  A
N1104     Mn1122   2.164       .  S
N1105      C1112   1.347       .  A
N1106      N1107   1.317       .  A
N1106     Mn1110   2.177       .  S
N1107      C1112   1.355       .  A
N1108      N1109   1.314       .  A
N1108     Mn1122   2.176       .  S
N1109      C1111   1.352       .  A
Mn1110    Cl1123   2.562       .  S
C1111      C3026   1.462       .  S
C1112      C2997   1.474       .  S
N1113      N1114   1.339       .  A
N1113      N1119   1.317       .  A
N1113     Mn1121   2.315       .  S
N1114      C1124   1.378       .  A
N1115      N1116   1.312       .  A
N1115      N1117   1.316       .  A
N1115     Mn1122   2.142       .  S
N1116      C1125   1.340       .  A
N1117      N1118   1.334       .  A
N1117     Mn1121   2.291       .  S
N1118      C1125   1.373       .  A
N1119      N1120   1.310       .  A
N1119     Mn1122   2.149       .  S
N1120      C1124   1.339       .  A
Mn1121    Cl1123   2.590       .  S
Mn1122    Cl1123   2.495       .  S
C1124      C4805   1.519       .  S
C1125      C4242   1.506       .  S
N1126      N1127   1.339       .  A
N1126      N1132   1.317       .  A
N1126     Mn1155   2.309       .  S
N1127      C1134   1.376       .  A
N1128      N1130   1.318       .  A
N1128      N1129   1.312       .  A
N1128     Mn1144   2.143       .  S
N1129      C1135   1.338       .  A
N1130      N1131   1.337       .  A
N1130     Mn1155   2.314       .  S
N1131      C1135   1.375       .  A
N1132      N1133   1.309       .  A
N1132     Mn1144   2.143       .  S
N1133      C1134   1.339       .  A
C1134      C4373   1.515       .  S
C1135      C2962   1.506       .  S
N1136      N1142   1.310       .  A
N1136      N1137   1.318       .  A
N1136     Mn1166   2.186       .  S
N1137      C1145   1.356       .  A
N1138      N1139   1.318       .  A
N1138      N1140   1.311       .  A
N1138     Mn1144   2.178       .  S
N1139      C1146   1.351       .  A
N1140      N1141   1.319       .  A
N1140     Mn1166   2.196       .  S
N1141      C1146   1.356       .  A
N1142      N1143   1.316       .  A
N1142     Mn1144   2.174       .  S
N1143      C1145   1.348       .  A
Mn1144    Cl1168   2.511       .  S
C1145      C2946   1.480       .  S
C1146      C2981   1.476       .  S
N1147      N1148   1.339       .  A
N1147      N1153   1.317       .  A
N1147     Mn1155   2.318       .  S
N1148      C1156   1.377       .  A
N1149      N1151   1.317       .  A
N1149      N1150   1.311       .  A
N1149     Mn1167   2.134       .  S
N1150      C1157   1.337       .  A
N1151      N1152   1.336       .  A
N1151     Mn1155   2.310       .  S
N1152      C1157   1.374       .  A
N1153      N1154   1.313       .  A
N1153     Mn1167   2.157       .  S
N1154      C1156   1.341       .  A
Mn1155    Cl1168   2.584       .  S
C1156      C2933   1.522       .  S
C1157      C4165   1.501       .  S
N1158      N1159   1.315       .  A
N1158      N1164   1.311       .  A
N1158     Mn1166   2.179       .  S
N1159      C1169   1.353       .  A
N1160      N1161   1.313       .  A
N1160      N1162   1.310       .  A
N1160     Mn1167   2.150       .  S
N1161      C1170   1.343       .  A
N1162      N1163   1.319       .  A
N1162     Mn1166   2.198       .  S
N1163      C1170   1.358       .  A
N1164      N1165   1.321       .  A
N1164     Mn1167   2.188       .  S
N1165      C1169   1.353       .  A
Mn1166    Cl1168   2.564       .  S
Mn1167    Cl1168   2.516       .  S
C1169      C3125   1.481       .  S
C1170      C3349   1.471       .  S
N1171      N1172   1.318       .  A
N1171      N1177   1.312       .  A
N1171     Mn1200   2.193       .  S
N1172      C1179   1.354       .  A
N1173      N1175   1.309       .  A
N1173      N1174   1.318       .  A
N1173     Mn1189   2.176       .  S
N1174      C1180   1.350       .  A
N1175      N1176   1.316       .  A
N1175     Mn1200   2.174       .  S
N1176      C1180   1.352       .  A
N1177      N1178   1.317       .  A
N1177     Mn1189   2.178       .  S
N1178      C1179   1.351       .  A
C1179      C2914   1.472       .  S
C1180      C3445   1.471       .  S
N1181      N1187   1.318       .  A
N1181      N1182   1.336       .  A
N1181     Mn1211   2.296       .  S
N1182      C1190   1.373       .  A
N1183      N1184   1.310       .  A
N1183      N1185   1.318       .  A
N1183     Mn1189   2.137       .  S
N1184      C1191   1.336       .  A
N1185      N1186   1.336       .  A
N1185     Mn1211   2.302       .  S
N1186      C1191   1.372       .  A
N1187      N1188   1.307       .  A
N1187     Mn1189   2.130       .  S
N1188      C1190   1.334       .  A
Mn1189    Cl1213   2.504       .  S
C1190      C2898   1.490       .  S
C1191      C4597   1.491       .  S
N1192      N1193   1.322       .  A
N1192      N1198   1.310       .  A
N1192     Mn1200   2.192       .  S
N1193      C1201   1.358       .  A
N1194      N1196   1.309       .  A
N1194      N1195   1.313       .  A
N1194     Mn1212   2.159       .  S
N1195      C1202   1.346       .  A
N1196      N1197   1.318       .  A
N1196     Mn1200   2.175       .  S
N1197      C1202   1.354       .  A
N1198      N1199   1.312       .  A
N1198     Mn1212   2.165       .  S
N1199      C1201   1.348       .  A
Mn1200    Cl1213   2.570       .  S
C1201      C2882   1.472       .  S
C1202      C3029   1.467       .  S
N1203      N1204   1.334       .  A
N1203      N1209   1.317       .  A
N1203     Mn1211   2.289       .  S
N1204      C1214   1.372       .  A
N1205      N1206   1.306       .  A
N1205      N1207   1.314       .  A
N1205     Mn1212   2.122       .  S
N1206      C1215   1.334       .  A
N1207      N1208   1.339       .  A
N1207     Mn1211   2.303       .  S
N1208      C1215   1.377       .  A
N1209      N1210   1.311       .  A
N1209     Mn1212   2.154       .  S
N1210      C1214   1.342       .  A
Mn1211    Cl1213   2.587       .  S
Mn1212    Cl1213   2.487       .  S
C1214      C4229   1.508       .  S
C1215      C2866   1.503       .  S
N1216      N1217   1.338       .  A
N1216      N1222   1.316       .  A
N1216     Mn1245   2.310       .  S
N1217      C1224   1.376       .  A
N1218      N1220   1.318       .  A
N1218      N1219   1.313       .  A
N1218     Mn1234   2.159       .  S
N1219      C1225   1.342       .  A
N1220      N1221   1.334       .  A
N1220     Mn1245   2.299       .  S
N1221      C1225   1.374       .  A
N1222      N1223   1.310       .  A
N1222     Mn1234   2.141       .  S
N1223      C1224   1.339       .  A
C1224      C4290   1.512       .  S
C1225      C2802   1.514       .  S
N1226      N1232   1.310       .  A
N1226      N1227   1.314       .  A
N1226     Mn1256   2.170       .  S
N1227      C1235   1.350       .  A
N1228      N1229   1.319       .  A
N1228      N1230   1.312       .  A
N1228     Mn1234   2.188       .  S
N1229      C1236   1.354       .  A
N1230      N1231   1.316       .  A
N1230     Mn1256   2.186       .  S
N1231      C1236   1.352       .  A
N1232      N1233   1.316       .  A
N1232     Mn1234   2.158       .  S
N1233      C1235   1.346       .  A
Mn1234    Cl1258   2.511       .  S
C1235      C2786   1.446       .  S
C1236      C2837   1.480       .  S
N1237      N1238   1.339       .  A
N1237      N1243   1.316       .  A
N1237     Mn1245   2.321       .  S
N1238      C1246   1.377       .  A
N1239      N1241   1.319       .  A
N1239      N1240   1.310       .  A
N1239     Mn1257   2.150       .  S
N1240      C1247   1.338       .  A
N1241      N1242   1.337       .  A
N1241     Mn1245   2.301       .  S
N1242      C1247   1.374       .  A
N1243      N1244   1.310       .  A
N1243     Mn1257   2.124       .  S
N1244      C1246   1.335       .  A
Mn1245    Cl1258   2.571       .  S
C1246      C2818   1.505       .  S
C1247      C4213   1.502       .  S
N1248      N1249   1.317       .  A
N1248      N1254   1.310       .  A
N1248     Mn1256   2.181       .  S
N1249      C1259   1.353       .  A
N1250      N1251   1.318       .  A
N1250      N1252   1.311       .  A
N1250     Mn1257   2.180       .  S
N1251      C1260   1.352       .  A
N1252      N1253   1.318       .  A
N1252     Mn1256   2.188       .  S
N1253      C1260   1.353       .  A
N1254      N1255   1.315       .  A
N1254     Mn1257   2.156       .  S
N1255      C1259   1.345       .  A
Mn1256    Cl1258   2.565       .  S
Mn1257    Cl1258   2.513       .  S
C1259      C2850   1.458       .  S
C1260      C3221   1.472       .  S
N1261      N1262   1.319       .  A
N1261      N1267   1.311       .  A
N1261     Mn1290   2.187       .  S
N1262      C1269   1.355       .  A
N1263      N1265   1.310       .  A
N1263      N1264   1.317       .  A
N1263     Mn1279   2.175       .  S
N1264      C1270   1.350       .  A
N1265      N1266   1.314       .  A
N1265     Mn1290   2.162       .  S
N1266      C1270   1.349       .  A
N1267      N1268   1.315       .  A
N1267     Mn1279   2.172       .  S
N1268      C1269   1.349       .  A
C1269      C2770   1.471       .  S
C1270      C2722   1.464       .  S
N1271      N1277   1.317       .  A
N1271      N1272   1.337       .  A
N1271     Mn1301   2.304       .  S
N1272      C1280   1.375       .  A
N1273      N1274   1.310       .  A
N1273      N1275   1.317       .  A
N1273     Mn1279   2.147       .  S
N1274      C1281   1.339       .  A
N1275      N1276   1.342       .  A
N1275     Mn1301   2.324       .  S
N1276      C1281   1.379       .  A
N1277      N1278   1.310       .  A
N1277     Mn1279   2.147       .  S
N1278      C1280   1.340       .  A
Mn1279    Cl1303   2.502       .  S
C1280      C2709   1.514       .  S
C1281      C2965   1.521       .  S
N1282      N1283   1.318       .  A
N1282      N1288   1.310       .  A
N1282     Mn1290   2.181       .  S
N1283      C1291   1.353       .  A
N1284      N1286   1.310       .  A
N1284      N1285   1.316       .  A
N1284     Mn1302   2.168       .  S
N1285      C1292   1.348       .  A
N1286      N1287   1.316       .  A
N1286     Mn1290   2.175       .  S
N1287      C1292   1.353       .  A
N1288      N1289   1.317       .  A
N1288     Mn1302   2.179       .  S
N1289      C1291   1.352       .  A
Mn1290    Cl1303   2.576       .  S
C1291      C2738   1.471       .  S
C1292      C2754   1.466       .  S
N1293      N1294   1.336       .  A
N1293      N1299   1.318       .  A
N1293     Mn1301   2.302       .  S
N1294      C1304   1.374       .  A
N1295      N1296   1.308       .  A
N1295      N1297   1.317       .  A
N1295     Mn1302   2.133       .  S
N1296      C1305   1.336       .  A
N1297      N1298   1.338       .  A
N1297     Mn1301   2.304       .  S
N1298      C1305   1.375       .  A
N1299      N1300   1.311       .  A
N1299     Mn1302   2.152       .  S
N1300      C1304   1.340       .  A
Mn1301    Cl1303   2.581       .  S
Mn1302    Cl1303   2.502       .  S
C1304      C2693   1.509       .  S
C1305      C2805   1.504       .  S
N1306      N1307   1.338       .  A
N1306      N1312   1.317       .  A
N1306     Mn1335   2.313       .  S
N1307      C1314   1.377       .  A
N1308      N1310   1.318       .  A
N1308      N1309   1.308       .  A
N1308     Mn1324   2.138       .  S
N1309      C1315   1.335       .  A
N1310      N1311   1.338       .  A
N1310     Mn1335   2.301       .  S
N1311      C1315   1.373       .  A
N1312      N1313   1.308       .  A
N1312     Mn1324   2.134       .  S
N1313      C1314   1.337       .  A
C1314      C3845   1.511       .  S
C1315      C2658   1.489       .  S
N1316      N1322   1.311       .  A
N1316      N1317   1.316       .  A
N1316     Mn1346   2.182       .  S
N1317      C1325   1.353       .  A
N1318      N1319   1.319       .  A
N1318      N1320   1.310       .  A
N1318     Mn1324   2.173       .  S
N1319      C1326   1.350       .  A
N1320      N1321   1.315       .  A
N1320     Mn1346   2.173       .  S
N1321      C1326   1.350       .  A
N1322      N1323   1.317       .  A
N1322     Mn1324   2.166       .  S
N1323      C1325   1.348       .  A
Mn1324    Cl1348   2.511       .  S
C1325      C2642   1.463       .  S
C1326      C3109   1.463       .  S
N1327      N1328   1.337       .  A
N1327      N1333   1.318       .  A
N1327     Mn1335   2.310       .  S
N1328      C1336   1.375       .  A
N1329      N1331   1.316       .  A
N1329      N1330   1.310       .  A
N1329     Mn1347   2.153       .  S
N1330      C1337   1.340       .  A
N1331      N1332   1.339       .  A
N1331     Mn1335   2.302       .  S
N1332      C1337   1.375       .  A
N1333      N1334   1.313       .  A
N1333     Mn1347   2.157       .  S
N1334      C1336   1.342       .  A
Mn1335    Cl1348   2.578       .  S
C1336      C2610   1.516       .  S
C1337      C3781   1.514       .  S
N1338      N1339   1.318       .  A
N1338      N1344   1.310       .  A
N1338     Mn1346   2.178       .  S
N1339      C1349   1.352       .  A
N1340      N1341   1.317       .  A
N1340      N1342   1.310       .  A
N1340     Mn1347   2.183       .  S
N1341      C1350   1.351       .  A
N1342      N1343   1.319       .  A
N1342     Mn1346   2.184       .  S
N1343      C1350   1.355       .  A
N1344      N1345   1.316       .  A
N1344     Mn1347   2.181       .  S
N1345      C1349   1.353       .  A
Mn1346    Cl1348   2.571       .  S
Mn1347    Cl1348   2.507       .  S
C1349      C2674   1.477       .  S
C1350      C2626   1.482       .  S
N1351      N1352   1.319       .  A
N1351      N1357   1.310       .  A
N1351     Mn1380   2.182       .  S
N1352      C1359   1.353       .  A
N1353      N1355   1.310       .  A
N1353      N1354   1.321       .  A
N1353     Mn1369   2.192       .  S
N1354      C1360   1.355       .  A
N1355      N1356   1.315       .  A
N1355     Mn1380   2.183       .  S
N1356      C1360   1.353       .  A
N1357      N1358   1.315       .  A
N1357     Mn1369   2.161       .  S
N1358      C1359   1.346       .  A
C1359      C2549   1.458       .  S
C1360      C2562   1.487       .  S
N1361      N1367   1.316       .  A
N1361      N1362   1.338       .  A
N1361     Mn1391   2.295       .  S
N1362      C1370   1.374       .  A
N1363      N1364   1.310       .  A
N1363      N1365   1.319       .  A
N1363     Mn1369   2.152       .  S
N1364      C1371   1.338       .  A
N1365      N1366   1.337       .  A
N1365     Mn1391   2.302       .  S
N1366      C1371   1.375       .  A
N1367      N1368   1.305       .  A
N1367     Mn1369   2.128       .  S
N1368      C1370   1.336       .  A
Mn1369    Cl1393   2.501       .  S
C1370      C2581   1.505       .  S
C1371      C3317   1.504       .  S
N1372      N1373   1.315       .  A
N1372      N1378   1.310       .  A
N1372     Mn1380   2.172       .  S
N1373      C1381   1.351       .  A
N1374      N1376   1.311       .  A
N1374      N1375   1.315       .  A
N1374     Mn1392   2.172       .  S
N1375      C1382   1.348       .  A
N1376      N1377   1.317       .  A
N1376     Mn1380   2.182       .  S
N1377      C1382   1.354       .  A
N1378      N1379   1.320       .  A
N1378     Mn1392   2.186       .  S
N1379      C1381   1.352       .  A
Mn1380    Cl1393   2.560       .  S
C1381      C2594   1.476       .  S
C1382      C2773   1.473       .  S
N1383      N1384   1.341       .  A
N1383      N1389   1.315       .  A
N1383     Mn1391   2.310       .  S
N1384      C1394   1.377       .  A
N1385      N1386   1.311       .  A
N1385      N1387   1.319       .  A
N1385     Mn1392   2.143       .  S
N1386      C1395   1.335       .  A
N1387      N1388   1.337       .  A
N1387     Mn1391   2.312       .  S
N1388      C1395   1.374       .  A
N1389      N1390   1.310       .  A
N1389     Mn1392   2.150       .  S
N1390      C1394   1.340       .  A
Mn1391    Cl1393   2.593       .  S
Mn1392    Cl1393   2.505       .  S
C1394      C2930   1.521       .  S
C1395      C2661   1.490       .  S
N1396      N1397   1.339       .  A
N1396      N1402   1.316       .  A
N1396     Mn1425   2.310       .  S
N1397      C1404   1.377       .  A
N1398      N1400   1.317       .  A
N1398      N1399   1.310       .  A
N1398     Mn1414   2.143       .  S
N1399      C1405   1.338       .  A
N1400      N1401   1.335       .  A
N1400     Mn1425   2.293       .  S
N1401      C1405   1.373       .  A
N1402      N1403   1.306       .  A
N1402     Mn1414   2.132       .  S
N1403      C1404   1.336       .  A
C1404      C5173   1.510       .  S
C1405      C2517   1.499       .  S
N1406      N1412   1.310       .  A
N1406      N1407   1.316       .  A
N1406     Mn1436   2.182       .  S
N1407      C1415   1.353       .  A
N1408      N1409   1.316       .  A
N1408      N1410   1.310       .  A
N1408     Mn1414   2.175       .  S
N1409      C1416   1.348       .  A
N1410      N1411   1.321       .  A
N1410     Mn1436   2.191       .  S
N1411      C1416   1.354       .  A
N1412      N1413   1.318       .  A
N1412     Mn1414   2.169       .  S
N1413      C1415   1.351       .  A
Mn1414    Cl1438   2.502       .  S
C1415      C3461   1.469       .  S
C1416      C2533   1.469       .  S
N1417      N1418   1.336       .  A
N1417      N1423   1.318       .  A
N1417     Mn1425   2.304       .  S
N1418      C1426   1.373       .  A
N1419      N1421   1.317       .  A
N1419      N1420   1.308       .  A
N1419     Mn1437   2.140       .  S
N1420      C1427   1.338       .  A
N1421      N1422   1.335       .  A
N1421     Mn1425   2.289       .  S
N1422      C1427   1.372       .  A
N1423      N1424   1.310       .  A
N1423     Mn1437   2.139       .  S
N1424      C1426   1.336       .  A
Mn1425    Cl1438   2.578       .  S
C1426      C2498   1.496       .  S
C1427      C4818   1.500       .  S
N1428      N1429   1.316       .  A
N1428      N1434   1.310       .  A
N1428     Mn1436   2.177       .  S
N1429      C1439   1.351       .  A
N1430      N1431   1.317       .  A
N1430      N1432   1.310       .  A
N1430     Mn1437   2.168       .  S
N1431      C1440   1.348       .  A
N1432      N1433   1.318       .  A
N1432     Mn1436   2.190       .  S
N1433      C1440   1.355       .  A
N1434      N1435   1.317       .  A
N1434     Mn1437   2.173       .  S
N1435      C1439   1.351       .  A
Mn1436    Cl1438   2.573       .  S
Mn1437    Cl1438   2.504       .  S
C1439      C2994   1.469       .  S
C1440      C2885   1.474       .  S
N1441      N1442   1.318       .  A
N1441      N1447   1.310       .  A
N1441     Mn1470   2.187       .  S
N1442      C1449   1.353       .  A
N1443      N1445   1.311       .  A
N1443      N1444   1.318       .  A
N1443     Mn1459   2.172       .  S
N1444      C1450   1.349       .  A
N1445      N1446   1.313       .  A
N1445     Mn1470   2.172       .  S
N1446      C1450   1.348       .  A
N1447      N1448   1.317       .  A
N1447     Mn1459   2.174       .  S
N1448      C1449   1.351       .  A
C1449      C2482   1.474       .  S
C1450      C2789   1.450       .  S
N1451      N1457   1.317       .  A
N1451      N1452   1.336       .  A
N1451     Mn1481   2.300       .  S
N1452      C1460   1.373       .  A
N1453      N1454   1.309       .  A
N1453      N1455   1.315       .  A
N1453     Mn1459   2.137       .  S
N1454      C1461   1.338       .  A
N1455      N1456   1.337       .  A
N1455     Mn1481   2.305       .  S
N1456      C1461   1.376       .  A
N1457      N1458   1.312       .  A
N1457     Mn1459   2.150       .  S
N1458      C1460   1.340       .  A
Mn1459    Cl1483   2.516       .  S
C1460      C2706   1.504       .  S
C1461      C4946   1.513       .  S
N1462      N1463   1.317       .  A
N1462      N1468   1.310       .  A
N1462     Mn1470   2.181       .  S
N1463      C1471   1.353       .  A
N1464      N1466   1.310       .  A
N1464      N1465   1.319       .  A
N1464     Mn1482   2.188       .  S
N1465      C1472   1.351       .  A
N1466      N1467   1.317       .  A
N1466     Mn1470   2.176       .  S
N1467      C1472   1.354       .  A
N1468      N1469   1.317       .  A
N1468     Mn1482   2.175       .  S
N1469      C1471   1.350       .  A
Mn1470    Cl1483   2.551       .  S
C1471      C3202   1.473       .  S
C1472      C3285   1.480       .  S
N1473      N1474   1.334       .  A
N1473      N1479   1.316       .  A
N1473     Mn1481   2.293       .  S
N1474      C1484   1.373       .  A
N1475      N1476   1.314       .  A
N1475      N1477   1.320       .  A
N1475     Mn1482   2.160       .  S
N1476      C1485   1.340       .  A
N1477      N1478   1.335       .  A
N1477     Mn1481   2.298       .  S
N1478      C1485   1.370       .  A
N1479      N1480   1.309       .  A
N1479     Mn1482   2.130       .  S
N1480      C1484   1.336       .  A
Mn1481    Cl1483   2.575       .  S
Mn1482    Cl1483   2.518       .  S
C1484      C4725   1.498       .  S
C1485      C2466   1.492       .  S
N1486      N1487   1.318       .  A
N1486      N1492   1.310       .  A
N1486     Mn1515   2.186       .  S
N1487      C1494   1.354       .  A
N1488      N1490   1.311       .  A
N1488      N1489   1.321       .  A
N1488     Mn1504   2.195       .  S
N1489      C1495   1.357       .  A
N1490      N1491   1.314       .  A
N1490     Mn1515   2.169       .  S
N1491      C1495   1.348       .  A
N1492      N1493   1.315       .  A
N1492     Mn1504   2.159       .  S
N1493      C1494   1.345       .  A
C1494      C2450   1.463       .  S
C1495      C2949   1.474       .  S
N1496      N1502   1.316       .  A
N1496      N1497   1.339       .  A
N1496     Mn1526   2.304       .  S
N1497      C1505   1.376       .  A
N1498      N1499   1.313       .  A
N1498      N1500   1.319       .  A
N1498     Mn1504   2.157       .  S
N1499      C1506   1.338       .  A
N1500      N1501   1.337       .  A
N1500     Mn1526   2.308       .  S
N1501      C1506   1.374       .  A
N1502      N1503   1.305       .  A
N1502     Mn1504   2.129       .  S
N1503      C1505   1.336       .  A
Mn1504    Cl1528   2.509       .  S
C1505      C2690   1.510       .  S
C1506      C4869   1.502       .  S
N1507      N1508   1.317       .  A
N1507      N1513   1.311       .  A
N1507     Mn1515   2.178       .  S
N1508      C1516   1.350       .  A
N1509      N1511   1.311       .  A
N1509      N1510   1.318       .  A
N1509     Mn1527   2.190       .  S
N1510      C1517   1.353       .  A
N1511      N1512   1.318       .  A
N1511     Mn1515   2.177       .  S
N1512      C1517   1.353       .  A
N1513      N1514   1.319       .  A
N1513     Mn1527   2.176       .  S
N1514      C1516   1.350       .  A
Mn1515    Cl1528   2.562       .  S
C1516      C3381   1.456       .  S
C1517      C2437   1.478       .  S
N1518      N1519   1.334       .  A
N1518      N1524   1.316       .  A
N1518     Mn1526   2.294       .  S
N1519      C1529   1.373       .  A
N1520      N1521   1.312       .  A
N1520      N1522   1.319       .  A
N1520     Mn1527   2.170       .  S
N1521      C1530   1.344       .  A
N1522      N1523   1.337       .  A
N1522     Mn1526   2.303       .  S
N1523      C1530   1.374       .  A
N1524      N1525   1.309       .  A
N1524     Mn1527   2.128       .  S
N1525      C1529   1.336       .  A
Mn1526    Cl1528   2.588       .  S
Mn1527    Cl1528   2.506       .  S
C1529      C4786   1.496       .  S
C1530      C2421   1.516       .  S
N1531      N1532   1.335       .  A
N1531      N1537   1.316       .  A
N1531     Mn1560   2.294       .  S
N1532      C1539   1.373       .  A
N1533      N1535   1.318       .  A
N1533      N1534   1.314       .  A
N1533     Mn1549   2.160       .  S
N1534      C1540   1.340       .  A
N1535      N1536   1.338       .  A
N1535     Mn1560   2.310       .  S
N1536      C1540   1.375       .  A
N1537      N1538   1.310       .  A
N1537     Mn1549   2.143       .  S
N1538      C1539   1.340       .  A
C1539      C3429   1.510       .  S
C1540      C2418   1.508       .  S
N1541      N1547   1.310       .  A
N1541      N1542   1.317       .  A
N1541     Mn1571   2.180       .  S
N1542      C1550   1.353       .  A
N1543      N1544   1.317       .  A
N1543      N1545   1.311       .  A
N1543     Mn1549   2.185       .  S
N1544      C1551   1.350       .  A
N1545      N1546   1.319       .  A
N1545     Mn1571   2.184       .  S
N1546      C1551   1.354       .  A
N1547      N1548   1.315       .  A
N1547     Mn1549   2.166       .  S
N1548      C1550   1.349       .  A
Mn1549    Cl1573   2.505       .  S
C1550      C2757   1.464       .  S
C1551      C2389   1.480       .  S
N1552      N1553   1.339       .  A
N1552      N1558   1.315       .  A
N1552     Mn1560   2.294       .  S
N1553      C1561   1.376       .  A
N1554      N1556   1.317       .  A
N1554      N1555   1.310       .  A
N1554     Mn1572   2.148       .  S
N1555      C1562   1.340       .  A
N1556      N1557   1.338       .  A
N1556     Mn1560   2.307       .  S
N1557      C1562   1.375       .  A
N1558      N1559   1.303       .  A
N1558     Mn1572   2.129       .  S
N1559      C1561   1.334       .  A
Mn1560    Cl1573   2.593       .  S
C1561      C3333   1.506       .  S
C1562      C2514   1.512       .  S
N1563      N1564   1.318       .  A
N1563      N1569   1.312       .  A
N1563     Mn1571   2.191       .  S
N1564      C1574   1.351       .  A
N1565      N1566   1.316       .  A
N1565      N1567   1.311       .  A
N1565     Mn1572   2.173       .  S
N1566      C1575   1.349       .  A
N1567      N1568   1.318       .  A
N1567     Mn1571   2.184       .  S
N1568      C1575   1.353       .  A
N1569      N1570   1.318       .  A
N1569     Mn1572   2.173       .  S
N1570      C1574   1.348       .  A
Mn1571    Cl1573   2.564       .  S
Mn1572    Cl1573   2.498       .  S
C1574      C2402   1.462       .  S
C1575      C2546   1.457       .  S
N1576      N1577   1.317       .  A
N1576      N1582   1.311       .  A
N1576     Mn1605   2.185       .  S
N1577      C1584   1.354       .  A
N1578      N1580   1.311       .  A
N1578      N1579   1.316       .  A
N1578     Mn1594   2.175       .  S
N1579      C1585   1.349       .  A
N1580      N1581   1.316       .  A
N1580     Mn1605   2.182       .  S
N1581      C1585   1.354       .  A
N1582      N1583   1.316       .  A
N1582     Mn1594   2.168       .  S
N1583      C1584   1.347       .  A
C1584      C2354   1.466       .  S
C1585      C2677   1.474       .  S
N1586      N1592   1.317       .  A
N1586      N1587   1.335       .  A
N1586     Mn1616   2.297       .  S
N1587      C1595   1.372       .  A
N1588      N1589   1.309       .  A
N1588      N1590   1.318       .  A
N1588     Mn1594   2.139       .  S
N1589      C1596   1.337       .  A
N1590      N1591   1.334       .  A
N1590     Mn1616   2.296       .  S
N1591      C1596   1.373       .  A
N1592      N1593   1.311       .  A
N1592     Mn1594   2.134       .  S
N1593      C1595   1.336       .  A
Mn1594    Cl1618   2.499       .  S
C1595      C3765   1.490       .  S
C1596      C5122   1.499       .  S
N1597      N1598   1.320       .  A
N1597      N1603   1.308       .  A
N1597     Mn1605   2.190       .  S
N1598      C1606   1.357       .  A
N1599      N1601   1.310       .  A
N1599      N1600   1.314       .  A
N1599     Mn1617   2.161       .  S
N1600      C1607   1.346       .  A
N1601      N1602   1.319       .  A
N1601     Mn1605   2.190       .  S
N1602      C1607   1.356       .  A
N1603      N1604   1.310       .  A
N1603     Mn1617   2.130       .  S
N1604      C1606   1.339       .  A
Mn1605    Cl1618   2.569       .  S
C1606      C3061   1.456       .  S
C1607      C2370   1.473       .  S
N1608      N1609   1.338       .  A
N1608      N1614   1.312       .  A
N1608     Mn1616   2.300       .  S
N1609      C1619   1.377       .  A
N1610      N1611   1.309       .  A
N1610      N1612   1.316       .  A
N1610     Mn1617   2.142       .  S
N1611      C1620   1.337       .  A
N1612      N1613   1.338       .  A
N1612     Mn1616   2.305       .  S
N1613      C1620   1.377       .  A
N1614      N1615   1.303       .  A
N1614     Mn1617   2.099       .  S
N1615      C1619   1.332       .  A
Mn1616    Cl1618   2.588       .  S
Mn1617    Cl1618   2.482       .  S
C1619      C4677   1.501       .  S
C1620      C3525   1.506       .  S
N1621      N1622   1.319       .  A
N1621      N1627   1.311       .  A
N1621     Mn1650   2.186       .  S
N1622      C1629   1.355       .  A
N1623      N1625   1.310       .  A
N1623      N1624   1.314       .  A
N1623     Mn1639   2.161       .  S
N1624      C1630   1.346       .  A
N1625      N1626   1.320       .  A
N1625     Mn1650   2.192       .  S
N1626      C1630   1.356       .  A
N1627      N1628   1.316       .  A
N1627     Mn1639   2.177       .  S
N1628      C1629   1.351       .  A
C1629      C2386   1.475       .  S
C1630      C2741   1.475       .  S
N1631      N1637   1.317       .  A
N1631      N1632   1.338       .  A
N1631     Mn1661   2.303       .  S
N1632      C1640   1.375       .  A
N1633      N1634   1.307       .  A
N1633      N1635   1.314       .  A
N1633     Mn1639   2.130       .  S
N1634      C1641   1.337       .  A
N1635      N1636   1.337       .  A
N1635     Mn1661   2.298       .  S
N1636      C1641   1.375       .  A
N1637      N1638   1.311       .  A
N1637     Mn1639   2.157       .  S
N1638      C1640   1.341       .  A
Mn1639    Cl1663   2.494       .  S
C1640      C2821   1.515       .  S
C1641      C3410   1.509       .  S
N1642      N1643   1.315       .  A
N1642      N1648   1.311       .  A
N1642     Mn1650   2.181       .  S
N1643      C1651   1.352       .  A
N1644      N1646   1.311       .  A
N1644      N1645   1.316       .  A
N1644     Mn1662   2.165       .  S
N1645      C1652   1.346       .  A
N1646      N1647   1.319       .  A
N1646     Mn1650   2.193       .  S
N1647      C1652   1.355       .  A
N1648      N1649   1.317       .  A
N1648     Mn1662   2.174       .  S
N1649      C1651   1.352       .  A
Mn1650    Cl1663   2.579       .  S
C1651      C2322   1.468       .  S
C1652      C2338   1.466       .  S
N1653      N1654   1.336       .  A
N1653      N1659   1.319       .  A
N1653     Mn1661   2.298       .  S
N1654      C1664   1.372       .  A
N1655      N1656   1.307       .  A
N1655      N1657   1.317       .  A
N1655     Mn1662   2.130       .  S
N1656      C1665   1.335       .  A
N1657      N1658   1.341       .  A
N1657     Mn1661   2.313       .  S
N1658      C1665   1.377       .  A
N1659      N1660   1.309       .  A
N1659     Mn1662   2.140       .  S
N1660      C1664   1.335       .  A
Mn1661    Cl1663   2.585       .  S
Mn1662    Cl1663   2.501       .  S
C1664      C2901   1.487       .  S
C1665      C3173   1.502       .  S
N1666      N1667   1.340       .  A
N1666      N1672   1.318       .  A
N1666     Mn1695   2.318       .  S
N1667      C1674   1.378       .  A
N1668      N1670   1.316       .  A
N1668      N1669   1.308       .  A
N1668     Mn1684   2.132       .  S
N1669      C1675   1.337       .  A
N1670      N1671   1.335       .  A
N1670     Mn1695   2.294       .  S
N1671      C1675   1.373       .  A
N1672      N1673   1.309       .  A
N1672     Mn1684   2.141       .  S
N1673      C1674   1.337       .  A
C1674      C4933   1.512       .  S
C1675      C4357   1.500       .  S
N1676      N1682   1.310       .  A
N1676      N1677   1.314       .  A
N1676     Mn1706   2.165       .  S
N1677      C1685   1.350       .  A
N1678      N1679   1.317       .  A
N1678      N1680   1.311       .  A
N1678     Mn1684   2.167       .  S
N1679      C1686   1.348       .  A
N1680      N1681   1.319       .  A
N1680     Mn1706   2.194       .  S
N1681      C1686   1.353       .  A
N1682      N1683   1.317       .  A
N1682     Mn1684   2.174       .  S
N1683      C1685   1.350       .  A
Mn1684    Cl1708   2.505       .  S
C1685      C2290   1.465       .  S
C1686      C2306   1.461       .  S
N1687      N1688   1.339       .  A
N1687      N1693   1.318       .  A
N1687     Mn1695   2.315       .  S
N1688      C1696   1.377       .  A
N1689      N1691   1.316       .  A
N1689      N1690   1.310       .  A
N1689     Mn1707   2.139       .  S
N1690      C1697   1.339       .  A
N1691      N1692   1.334       .  A
N1691     Mn1695   2.295       .  S
N1692      C1697   1.373       .  A
N1693      N1694   1.314       .  A
N1693     Mn1707   2.170       .  S
N1694      C1696   1.344       .  A
Mn1695    Cl1708   2.577       .  S
C1696      C4085   1.526       .  S
C1697      C4661   1.505       .  S
N1698      N1699   1.316       .  A
N1698      N1704   1.310       .  A
N1698     Mn1706   2.162       .  S
N1699      C1709   1.350       .  A
N1700      N1701   1.315       .  A
N1700      N1702   1.310       .  A
N1700     Mn1707   2.163       .  S
N1701      C1710   1.348       .  A
N1702      N1703   1.320       .  A
N1702     Mn1706   2.197       .  S
N1703      C1710   1.357       .  A
N1704      N1705   1.318       .  A
N1704     Mn1707   2.192       .  S
N1705      C1709   1.355       .  A
Mn1706    Cl1708   2.573       .  S
Mn1707    Cl1708   2.505       .  S
C1709      C2373   1.472       .  S
C1710      C3093   1.473       .  S
N1711      N1712   1.316       .  A
N1711      N1717   1.311       .  A
N1711     Mn1740   2.182       .  S
N1712      C1719   1.352       .  A
N1713      N1715   1.310       .  A
N1713      N1714   1.314       .  A
N1713     Mn1729   2.152       .  S
N1714      C1720   1.345       .  A
N1715      N1716   1.318       .  A
N1715     Mn1740   2.187       .  S
N1716      C1720   1.353       .  A
N1717      N1718   1.317       .  A
N1717     Mn1729   2.172       .  S
N1718      C1719   1.350       .  A
C1719      C2341   1.462       .  S
C1720      C2258   1.458       .  S
N1721      N1727   1.318       .  A
N1721      N1722   1.336       .  A
N1721     Mn1751   2.305       .  S
N1722      C1730   1.373       .  A
N1723      N1724   1.309       .  A
N1723      N1725   1.316       .  A
N1723     Mn1729   2.118       .  S
N1724      C1731   1.333       .  A
N1725      N1726   1.339       .  A
N1725     Mn1751   2.318       .  S
N1726      C1731   1.376       .  A
N1727      N1728   1.311       .  A
N1727     Mn1729   2.145       .  S
N1728      C1730   1.338       .  A
Mn1729    Cl1753   2.512       .  S
C1730      C2274   1.499       .  S
C1731      C2869   1.495       .  S
N1732      N1733   1.318       .  A
N1732      N1738   1.310       .  A
N1732     Mn1740   2.186       .  S
N1733      C1741   1.352       .  A
N1734      N1736   1.310       .  A
N1734      N1735   1.317       .  A
N1734     Mn1752   2.179       .  S
N1735      C1742   1.350       .  A
N1736      N1737   1.320       .  A
N1736     Mn1740   2.189       .  S
N1737      C1742   1.354       .  A
N1738      N1739   1.318       .  A
N1738     Mn1752   2.187       .  S
N1739      C1741   1.355       .  A
Mn1740    Cl1753   2.571       .  S
C1741      C2565   1.485       .  S
C1742      C2405   1.466       .  S
N1743      N1744   1.336       .  A
N1743      N1749   1.318       .  A
N1743     Mn1751   2.293       .  S
N1744      C1754   1.373       .  A
N1745      N1746   1.311       .  A
N1745      N1747   1.317       .  A
N1745     Mn1752   2.149       .  S
N1746      C1755   1.340       .  A
N1747      N1748   1.339       .  A
N1747     Mn1751   2.316       .  S
N1748      C1755   1.377       .  A
N1749      N1750   1.309       .  A
N1749     Mn1752   2.156       .  S
N1750      C1754   1.340       .  A
Mn1751    Cl1753   2.574       .  S
Mn1752    Cl1753   2.505       .  S
C1754      C2501   1.507       .  S
C1755      C2242   1.519       .  S
N1756      N1757   1.336       .  A
N1756      N1762   1.319       .  A
N1756     Mn1785   2.302       .  S
N1757      C1764   1.373       .  A
N1758      N1760   1.315       .  A
N1758      N1759   1.307       .  A
N1758     Mn1774   2.130       .  S
N1759      C1765   1.337       .  A
N1760      N1761   1.337       .  A
N1760     Mn1785   2.299       .  S
N1761      C1765   1.375       .  A
N1762      N1763   1.314       .  A
N1762     Mn1774   2.161       .  S
N1763      C1764   1.339       .  A
C1764      C5109   1.500       .  S
C1765      C2213   1.510       .  S
N1766      N1772   1.312       .  A
N1766      N1767   1.321       .  A
N1766     Mn1796   2.198       .  S
N1767      C1775   1.355       .  A
N1768      N1769   1.315       .  A
N1768      N1770   1.310       .  A
N1768     Mn1774   2.158       .  S
N1769      C1776   1.348       .  A
N1770      N1771   1.319       .  A
N1770     Mn1796   2.189       .  S
N1771      C1776   1.355       .  A
N1772      N1773   1.317       .  A
N1772     Mn1774   2.187       .  S
N1773      C1775   1.352       .  A
Mn1774    Cl1798   2.507       .  S
C1775      C2629   1.479       .  S
C1776      C2357   1.465       .  S
N1777      N1778   1.337       .  A
N1777      N1783   1.319       .  A
N1777     Mn1785   2.302       .  S
N1778      C1786   1.373       .  A
N1779      N1781   1.316       .  A
N1779      N1780   1.309       .  A
N1779     Mn1797   2.135       .  S
N1780      C1787   1.337       .  A
N1781      N1782   1.337       .  A
N1781     Mn1785   2.301       .  S
N1782      C1787   1.375       .  A
N1783      N1784   1.311       .  A
N1783     Mn1797   2.156       .  S
N1784      C1786   1.340       .  A
Mn1785    Cl1798   2.578       .  S
C1786      C2277   1.506       .  S
C1787      C4901   1.503       .  S
N1788      N1789   1.318       .  A
N1788      N1794   1.312       .  A
N1788     Mn1796   2.188       .  S
N1789      C1799   1.352       .  A
N1790      N1791   1.317       .  A
N1790      N1792   1.311       .  A
N1790     Mn1797   2.164       .  S
N1791      C1800   1.346       .  A
N1792      N1793   1.319       .  A
N1792     Mn1796   2.194       .  S
N1793      C1800   1.354       .  A
N1794      N1795   1.318       .  A
N1794     Mn1797   2.183       .  S
N1795      C1799   1.352       .  A
Mn1796    Cl1798   2.571       .  S
Mn1797    Cl1798   2.511       .  S
C1799      C2309   1.460       .  S
C1800      C2226   1.464       .  S
N1801      N1802   1.320       .  A
N1801      N1807   1.311       .  A
N1801     Mn1830   2.197       .  S
N1802      C1809   1.356       .  A
N1803      N1805   1.311       .  A
N1803      N1804   1.316       .  A
N1803     Mn1819   2.172       .  S
N1804      C1810   1.350       .  A
N1805      N1806   1.317       .  A
N1805     Mn1830   2.186       .  S
N1806      C1810   1.353       .  A
N1807      N1808   1.319       .  A
N1807     Mn1819   2.180       .  S
N1808      C1809   1.350       .  A
C1809      C3077   1.483       .  S
C1810      C2645   1.469       .  S
N1811      N1817   1.316       .  A
N1811      N1812   1.336       .  A
N1811     Mn1841   2.292       .  S
N1812      C1820   1.374       .  A
N1813      N1814   1.311       .  A
N1813      N1815   1.318       .  A
N1813     Mn1819   2.148       .  S
N1814      C1821   1.341       .  A
N1815      N1816   1.335       .  A
N1815     Mn1841   2.305       .  S
N1816      C1821   1.374       .  A
N1817      N1818   1.307       .  A
N1817     Mn1819   2.136       .  S
N1818      C1820   1.336       .  A
Mn1819    Cl1843   2.499       .  S
C1820      C2578   1.501       .  S
C1821      C4565   1.512       .  S
N1822      N1823   1.321       .  A
N1822      N1828   1.311       .  A
N1822     Mn1830   2.201       .  S
N1823      C1831   1.357       .  A
N1824      N1826   1.311       .  A
N1824      N1825   1.316       .  A
N1824     Mn1842   2.170       .  S
N1825      C1832   1.349       .  A
N1826      N1827   1.318       .  A
N1826     Mn1830   2.186       .  S
N1827      C1832   1.354       .  A
N1828      N1829   1.315       .  A
N1828     Mn1842   2.163       .  S
N1829      C1831   1.347       .  A
Mn1830    Cl1843   2.572       .  S
C1831      C2229   1.466       .  S
C1832      C2293   1.466       .  S
N1833      N1834   1.336       .  A
N1833      N1839   1.316       .  A
N1833     Mn1841   2.291       .  S
N1834      C1844   1.372       .  A
N1835      N1836   1.308       .  A
N1835      N1837   1.317       .  A
N1835     Mn1842   2.136       .  S
N1836      C1845   1.336       .  A
N1837      N1838   1.342       .  A
N1837     Mn1841   2.326       .  S
N1838      C1845   1.381       .  A
N1839      N1840   1.309       .  A
N1839     Mn1842   2.136       .  S
N1840      C1844   1.337       .  A
Mn1841    Cl1843   2.596       .  S
Mn1842    Cl1843   2.495       .  S
C1844      C4325   1.492       .  S
C1845      C2245   1.520       .  S
N1846      N1847   1.337       .  A
N1846      N1852   1.318       .  A
N1846     Mn1875   2.309       .  S
N1847      C1854   1.375       .  A
N1848      N1850   1.317       .  A
N1848      N1849   1.309       .  A
N1848     Mn1864   2.136       .  S
N1849      C1855   1.336       .  A
N1850      N1851   1.336       .  A
N1850     Mn1875   2.304       .  S
N1851      C1855   1.375       .  A
N1852      N1853   1.310       .  A
N1852     Mn1864   2.142       .  S
N1853      C1854   1.338       .  A
C1854      C3189   1.505       .  S
C1855      C2210   1.502       .  S
N1856      N1862   1.311       .  A
N1856      N1857   1.319       .  A
N1856     Mn1886   2.187       .  S
N1857      C1865   1.354       .  A
N1858      N1859   1.316       .  A
N1858      N1860   1.311       .  A
N1858     Mn1864   2.166       .  S
N1859      C1866   1.348       .  A
N1860      N1861   1.319       .  A
N1860     Mn1886   2.198       .  S
N1861      C1866   1.356       .  A
N1862      N1863   1.316       .  A
N1862     Mn1864   2.172       .  S
N1863      C1865   1.349       .  A
Mn1864    Cl1888   2.507       .  S
C1865      C2261   1.462       .  S
C1866      C2325   1.474       .  S
N1867      N1868   1.339       .  A
N1867      N1873   1.316       .  A
N1867     Mn1875   2.302       .  S
N1868      C1876   1.376       .  A
N1869      N1871   1.318       .  A
N1869      N1870   1.310       .  A
N1869     Mn1887   2.146       .  S
N1870      C1877   1.338       .  A
N1871      N1872   1.337       .  A
N1871     Mn1875   2.305       .  S
N1872      C1877   1.374       .  A
N1873      N1874   1.309       .  A
N1873     Mn1887   2.145       .  S
N1874      C1876   1.339       .  A
Mn1875    Cl1888   2.583       .  S
C1876      C2613   1.514       .  S
C1877      C2469   1.500       .  S
N1878      N1879   1.317       .  A
N1878      N1884   1.311       .  A
N1878     Mn1886   2.180       .  S
N1879      C1889   1.351       .  A
N1880      N1881   1.315       .  A
N1880      N1882   1.311       .  A
N1880     Mn1887   2.163       .  S
N1881      C1890   1.348       .  A
N1882      N1883   1.319       .  A
N1882     Mn1886   2.194       .  S
N1883      C1890   1.356       .  A
N1884      N1885   1.317       .  A
N1884     Mn1887   2.176       .  S
N1885      C1889   1.350       .  A
Mn1886    Cl1888   2.575       .  S
Mn1887    Cl1888   2.500       .  S
C1889      C2725   1.466       .  S
C1890      C2597   1.474       .  S
N1891      N1892   1.342       .  A
N1891      N1897   1.317       .  A
N1891     Mn1920   2.321       .  S
N1892      C1899   1.379       .  A
N1893      N1895   1.317       .  A
N1893      N1894   1.311       .  A
N1893     Mn1909   2.144       .  S
N1894      C1900   1.339       .  A
N1895      N1896   1.339       .  A
N1895     Mn1920   2.322       .  S
N1896      C1900   1.377       .  A
N1897      N1898   1.308       .  A
N1897     Mn1909   2.136       .  S
N1898      C1899   1.335       .  A
C1899      C4837   1.511       .  S
C1900      C4402   1.515       .  S
N1901      N1907   1.311       .  A
N1901      N1902   1.320   1_556  A
N1901     Mn1931   2.198       .  S
N1902      C1910   1.356   1_554  A
N1903      N1904   1.316       .  A
N1903      N1905   1.311       .  A
N1903     Mn1909   2.170       .  S
N1904      C1911   1.348       .  A
N1905      N1906   1.320       .  A
N1905     Mn1931   2.196       .  S
N1906      C1911   1.356       .  A
N1907      N1908   1.317       .  A
N1907     Mn1909   2.173       .  S
N1908      C1910   1.349       .  A
Mn1909    Cl1933   2.512       .  S
C1910      C2978   1.479   1_556  S
C1911      C2453   1.466       .  S
N1912      N1913   1.337       .  A
N1912      N1918   1.319       .  A
N1912     Mn1920   2.308       .  S
N1913      C1921   1.373       .  A
N1914      N1916   1.318       .  A
N1914      N1915   1.309       .  A
N1914     Mn1932   2.132       .  S
N1915      C1922   1.335       .  A
N1916      N1917   1.336       .  A
N1916     Mn1920   2.303       .  S
N1917      C1922   1.374       .  A
N1918      N1919   1.313       .  A
N1918     Mn1932   2.159       .  S
N1919      C1921   1.341       .  A
Mn1920    Cl1933   2.588       .  S
C1921      C4501   1.508       .  S
C1922      C4693   1.494       .  S
N1923      N1924   1.317       .  A
N1923      N1929   1.312       .  A
N1923     Mn1931   2.185       .  S
N1924      C1934   1.353       .  A
N1925      N1926   1.318       .  A
N1925      N1927   1.311       .  A
N1925     Mn1932   2.168       .  S
N1926      C1935   1.351       .  A
N1927      N1928   1.315   1_556  A
N1927     Mn1931   2.185       .  S
N1928      C1935   1.352   1_554  A
N1929      N1930   1.320       .  A
N1929     Mn1932   2.188       .  S
N1930      C1934   1.352       .  A
Mn1931    Cl1933   2.564       .  S
Mn1932    Cl1933   2.515       .  S
C1934      C2194   1.475   1_556  S
C1935      C3141   1.472   1_556  S
N1936      N1937   1.316       .  A
N1936      N1942   1.312       .  A
N1936     Mn1965   2.179       .  S
N1937      C1944   1.350       .  A
N1938      N1940   1.310       .  A
N1938      N1939   1.319       .  A
N1938     Mn1954   2.178       .  S
N1939      C1945   1.353       .  A
N1940      N1941   1.316       .  A
N1940     Mn1965   2.179       .  S
N1941      C1945   1.351       .  A
N1942      N1943   1.318       .  A
N1942     Mn1954   2.187       .  S
N1943      C1944   1.353       .  A
C1944      C2530   1.466   1_565  S
C1945      C3493   1.476   1_565  S
N1946      N1952   1.318       .  A
N1946      N1947   1.337       .  A
N1946     Mn1976   2.298       .  S
N1947      C1955   1.374       .  A
N1948      N1949   1.312       .  A
N1948      N1950   1.319       .  A
N1948     Mn1954   2.149       .  S
N1949      C1956   1.339       .  A
N1950      N1951   1.339       .  A
N1950     Mn1976   2.320       .  S
N1951      C1956   1.377       .  A
N1952      N1953   1.309       .  A
N1952     Mn1954   2.154       .  S
N1953      C1955   1.340       .  A
Mn1954    Cl1978   2.509       .  S
C1955      C3717   1.509       .  S
C1956      C5221   1.512       .  S
N1957      N1958   1.319       .  A
N1957      N1963   1.310       .  A
N1957     Mn1965   2.187       .  S
N1958      C1966   1.355       .  A
N1959      N1961   1.309       .  A
N1959      N1960   1.316       .  A
N1959     Mn1977   2.165       .  S
N1960      C1967   1.347       .  A
N1961      N1962   1.318       .  A
N1961     Mn1965   2.186       .  S
N1962      C1967   1.355       .  A
N1963      N1964   1.315       .  A
N1963     Mn1977   2.169       .  S
N1964      C1966   1.347       .  A
Mn1965    Cl1978   2.575       .  S
C1966      C2181   1.471       .  S
C1967      C3010   1.473       .  S
N1968      N1969   1.339       .  A
N1968      N1974   1.317       .  A
N1968     Mn1976   2.311       .  S
N1969      C1979   1.377       .  A
N1970      N1971   1.310       .  A
N1970      N1972   1.317       .  A
N1970     Mn1977   2.128       .  S
N1971      C1980   1.334       .  A
N1972      N1973   1.339       .  A
N1972     Mn1976   2.324       .  S
N1973      C1980   1.378       .  A
N1974      N1975   1.307       .  A
N1974     Mn1977   2.139       .  S
N1975      C1979   1.338       .  A
Mn1976    Cl1978   2.581       .  S
Mn1977    Cl1978   2.508       .  S
C1979      C5093   1.515       .  S
C1980      C3541   1.504       .  S
N1981      N1982   1.317       .  A
N1981      N1987   1.310       .  A
N1981     Mn2010   2.183       .  S
N1982      C1989   1.354       .  A
N1983      N1985   1.310       .  A
N1983      N1984   1.316       .  A
N1983     Mn1999   2.165       .  S
N1984      C1990   1.348       .  A
N1985      N1986   1.318   1_556  A
N1985     Mn2010   2.183       .  S
N1986      C1990   1.353   1_554  A
N1987      N1988   1.316       .  A
N1987     Mn1999   2.163       .  S
N1988      C1989   1.349       .  A
C1989      C3269   1.467   1_556  S
C1990      C2162   1.466   1_556  S
N1991      N1997   1.317       .  A
N1991      N1992   1.338       .  A
N1991     Mn2021   2.313       .  S
N1992      C2000   1.376       .  A
N1993      N1994   1.307       .  A
N1993      N1995   1.315       .  A
N1993     Mn1999   2.129       .  S
N1994      C2001   1.335       .  A
N1995      N1996   1.341       .  A
N1995     Mn2021   2.315       .  S
N1996      C2001   1.378       .  A
N1997      N1998   1.308       .  A
N1997     Mn1999   2.133       .  S
N1998      C2000   1.337       .  A
Mn1999    Cl2023   2.508       .  S
C2000      C4117   1.508       .  S
C2001      C5077   1.511       .  S
N2002      N2003   1.317   1_556  A
N2002      N2008   1.311       .  A
N2002     Mn2010   2.183       .  S
N2003      C2011   1.355   1_554  A
N2004      N2006   1.309       .  A
N2004      N2005   1.317       .  A
N2004     Mn2022   2.170       .  S
N2005      C2012   1.349       .  A
N2006      N2007   1.317   1_556  A
N2006     Mn2010   2.182       .  S
N2007      C2012   1.355   1_554  A
N2008      N2009   1.318       .  A
N2008     Mn2022   2.183       .  S
N2009      C2011   1.351       .  A
Mn2010    Cl2023   2.569       .  S
C2011      C2834   1.482   1_556  S
C2012      C2485   1.476   1_556  S
N2013      N2014   1.334       .  A
N2013      N2019   1.318       .  A
N2013     Mn2021   2.292       .  S
N2014      C2024   1.372       .  A
N2015      N2016   1.311       .  A
N2015      N2017   1.318       .  A
N2015     Mn2022   2.143       .  S
N2016      C2025   1.339       .  A
N2017      N2018   1.336       .  A
N2017     Mn2021   2.310       .  S
N2018      C2025   1.376       .  A
N2019      N2020   1.310       .  A
N2019     Mn2022   2.149       .  S
N2020      C2024   1.339       .  A
Mn2021    Cl2023   2.574       .  S
Mn2022    Cl2023   2.508       .  S
C2024      C4981   1.504       .  S
C2025      C4261   1.514       .  S
N2026      N2027   1.338       .  A
N2026      N2032   1.317       .  A
N2026     Mn2055   2.315       .  S
N2027      C2034   1.377       .  A
N2028      N2030   1.317       .  A
N2028      N2029   1.308       .  A
N2028     Mn2044   2.134       .  S
N2029      C2035   1.337       .  A
N2030      N2031   1.339       .  A
N2030     Mn2055   2.314       .  S
N2031      C2035   1.376       .  A
N2032      N2033   1.307       .  A
N2032     Mn2044   2.118       .  S
N2033      C2034   1.333       .  A
C2034      C4178   1.503       .  S
C2035      C3938   1.509       .  S
N2036      N2042   1.310       .  A
N2036      N2037   1.316       .  A
N2036     Mn2066   2.187       .  S
N2037      C2045   1.354       .  A
N2038      N2039   1.317       .  A
N2038      N2040   1.311       .  A
N2038     Mn2044   2.168       .  S
N2039      C2046   1.348       .  A
N2040      N2041   1.317       .  A
N2040     Mn2066   2.189       .  S
N2041      C2046   1.353       .  A
N2042      N2043   1.315       .  A
N2042     Mn2044   2.151       .  S
N2043      C2045   1.345       .  A
Mn2044    Cl2068   2.506       .  S
C2045      C3234   1.464       .  S
C2046      C2853   1.461       .  S
N2047      N2048   1.335       .  A
N2047      N2053   1.317       .  A
N2047     Mn2055   2.302       .  S
N2048      C2056   1.374       .  A
N2049      N2051   1.317       .  A
N2049      N2050   1.309       .  A
N2049     Mn2067   2.139       .  S
N2050      C2057   1.337       .  A
N2051      N2052   1.338       .  A
N2051     Mn2055   2.310       .  S
N2052      C2057   1.377       .  A
N2053      N2054   1.314       .  A
N2053     Mn2067   2.154       .  S
N2054      C2056   1.342       .  A
Mn2055    Cl2068   2.581       .  S
C2056      C4037   1.516       .  S
C2057      C4133   1.512       .  S
N2058      N2059   1.320       .  A
N2058      N2064   1.311       .  A
N2058     Mn2066   2.191       .  S
N2059      C2069   1.356       .  A
N2060      N2061   1.314       .  A
N2060      N2062   1.311       .  A
N2060     Mn2067   2.164       .  S
N2061      C2070   1.348       .  A
N2062      N2063   1.319       .  A
N2062     Mn2066   2.192       .  S
N2063      C2070   1.355       .  A
N2064      N2065   1.315       .  A
N2064     Mn2067   2.171       .  S
N2065      C2069   1.349       .  A
Mn2066    Cl2068   2.575       .  S
Mn2067    Cl2068   2.499       .  S
C2069      C2165   1.471       .  S
C2070      C3301   1.467   1_655  S
N2071      N2072   1.335       .  A
N2071      N2077   1.317       .  A
N2071     Mn2100   2.288       .  S
N2072      C2079   1.372       .  A
N2073      N2075   1.318       .  A
N2073      N2074   1.308       .  A
N2073     Mn2089   2.130       .  S
N2074      C2080   1.333       .  A
N2075      N2076   1.337       .  A
N2075     Mn2100   2.300       .  S
N2076      C2080   1.373       .  A
N2077      N2078   1.311       .  A
N2077     Mn2089   2.155       .  S
N2078      C2079   1.340       .  A
C2079      C4642   1.500       .  S
C2080      C3621   1.484       .  S
N2081      N2087   1.311       .  A
N2081      N2082   1.318       .  A
N2081     Mn2111   2.186       .  S
N2082      C2090   1.352       .  A
N2083      N2084   1.316       .  A
N2083      N2085   1.310       .  A
N2083     Mn2089   2.159       .  S
N2084      C2091   1.347       .  A
N2085      N2086   1.318       .  A
N2085     Mn2111   2.196       .  S
N2086      C2091   1.356       .  A
N2087      N2088   1.319       .  A
N2087     Mn2089   2.188       .  S
N2088      C2090   1.352       .  A
Mn2089    Cl2113   2.509       .  S
C2090      C3477   1.462       .  S
C2091      C2917   1.476       .  S
N2092      N2093   1.337       .  A
N2092      N2098   1.318       .  A
N2092     Mn2100   2.303       .  S
N2093      C2101   1.373       .  A
N2094      N2096   1.317       .  A
N2094      N2095   1.309       .  A
N2094     Mn2112   2.138       .  S
N2095      C2102   1.337       .  A
N2096      N2097   1.337       .  A
N2096     Mn2100   2.299       .  S
N2097      C2102   1.374       .  A
N2098      N2099   1.311       .  A
N2098     Mn2112   2.144       .  S
N2099      C2101   1.337       .  A
Mn2100    Cl2113   2.572       .  S
C2101      C3557   1.496       .  S
C2102      C4517   1.502       .  S
N2103      N2104   1.318       .  A
N2103      N2109   1.311       .  A
N2103     Mn2111   2.188       .  S
N2104      C2114   1.353       .  A
N2105      N2106   1.318       .  A
N2105      N2107   1.311       .  A
N2105     Mn2112   2.172       .  S
N2106      C2115   1.351       .  A
N2107      N2108   1.318       .  A
N2107     Mn2111   2.194       .  S
N2108      C2115   1.353       .  A
N2109      N2110   1.317       .  A
N2109     Mn2112   2.174       .  S
N2110      C2114   1.348       .  A
Mn2111    Cl2113   2.563       .  S
Mn2112    Cl2113   2.512       .  S
C2114      C3042   1.459       .  S
C2115      C2178   1.472       .  S
N2116      N2117   1.318       .  A
N2116      N2122   1.312       .  A
N2116     Mn2145   2.191       .  S
N2117      C2124   1.355       .  A
N2118      N2120   1.310       .  A
N2118      N2119   1.316       .  A
N2118     Mn2134   2.158       .  S
N2119      C2125   1.346       .  A
N2120      N2121   1.315   1_565  A
N2120     Mn2145   2.173       .  S
N2121      C2125   1.349   1_545  A
N2122      N2123   1.319       .  A
N2122     Mn2134   2.190       .  S
N2123      C2124   1.352       .  A
C2124      C2434   1.484       .  S
C2125      C3394   1.449   1_565  S
N2126      N2132   1.318       .  A
N2126      N2127   1.334       .  A
N2126     Mn2156   2.294       .  S
N2127      C2135   1.372       .  A
N2128      N2129   1.312       .  A
N2128      N2130   1.318       .  A
N2128     Mn2134   2.132       .  S
N2129      C2136   1.335       .  A
N2130      N2131   1.339       .  A
N2130     Mn2156   2.329       .  S
N2131      C2136   1.378       .  A
N2132      N2133   1.313       .  A
N2132     Mn2134   2.165       .  S
N2133      C2135   1.344       .  A
Mn2134    Cl2158   2.516       .  S
C2135      C3829   1.512       .  S
C2136      C4757   1.506       .  S
N2137      N2138   1.318       .  A
N2137      N2143   1.310       .  A
N2137     Mn2145   2.194       .  S
N2138      C2146   1.354       .  A
N2139      N2141   1.309       .  A
N2139      N2140   1.317       .  A
N2139     Mn2157   2.164       .  S
N2140      C2147   1.348       .  A
N2141      N2142   1.317       .  A
N2141     Mn2145   2.179       .  S
N2142      C2147   1.354       .  A
N2143      N2144   1.318       .  A
N2143     Mn2157   2.175       .  S
N2144      C2146   1.351       .  A
Mn2145    Cl2158   2.567       .  S
C2146      C3157   1.477   1_565  S
C2147      C2197   1.472       .  S
N2148      N2149   1.336       .  A
N2148      N2154   1.318       .  A
N2148     Mn2156   2.305       .  S
N2149      C2159   1.375       .  A
N2150      N2151   1.311       .  A
N2150      N2152   1.317       .  A
N2150     Mn2157   2.130       .  S
N2151      C2160   1.335       .  A
N2152      N2153   1.339       .  A
N2152     Mn2156   2.327       .  S
N2153      C2160   1.377       .  A
N2154      N2155   1.309       .  A
N2154     Mn2157   2.142       .  S
N2155      C2159   1.338       .  A
Mn2156    Cl2158   2.570       .  S
Mn2157    Cl2158   2.517       .  S
C2159      C4709   1.506       .  S
C2160      C4069   1.505       .  S
C2161      C2162   1.399       .  A
C2161      C2166   1.398       .  A
C2161      H2168   1.085       .  S
C2162      C2163   1.418       .  A
C2163      C2164   1.401   1_455  A
C2163      C2170   1.520   1_554  S
C2164      C2165   1.402       .  A
C2164      H2169   1.083       .  S
C2165      C2166   1.412   1_655  A
C2166      C2167   1.508       .  S
C2167      F2171   1.384       .  S
C2167      F2172   1.383   1_455  S
C2167      F2173   1.382       .  S
C2170      F2174   1.382       .  S
C2170      F2175   1.384   1_556  S
C2170      F2176   1.385   1_556  S
C2177      C2178   1.401       .  A
C2177      C2182   1.403   1_655  A
C2177      H2184   1.080       .  S
C2178      C2179   1.411   1_655  A
C2179      C2180   1.401       .  A
C2179      C2186   1.512       .  S
C2180      C2181   1.401   1_545  A
C2180      H2185   1.079       .  S
C2181      C2182   1.420   1_565  A
C2182      C2183   1.521   1_545  S
C2183      F2187   1.384   1_455  S
C2183      F2188   1.384       .  S
C2183      F2189   1.383       .  S
C2186      F2190   1.381       .  S
C2186      F2191   1.385   1_455  S
C2186      F2192   1.385       .  S
C2193      C2194   1.403       .  A
C2193      C2198   1.407   1_545  A
C2193      H2200   1.083   1_554  S
C2194      C2195   1.411       .  A
C2195      C2196   1.395       .  A
C2195      C2202   1.507       .  S
C2196      C2197   1.398   1_545  A
C2196      H2201   1.086       .  S
C2197      C2198   1.421       .  A
C2198      C2199   1.519       .  S
C2199      F2203   1.385   1_554  S
C2199      F2204   1.383       .  S
C2199      F2205   1.383       .  S
C2202      F2206   1.383   1_554  S
C2202      F2207   1.383       .  S
C2202      F2208   1.384       .  S
C2209      C2210   1.418       .  A
C2209      C2214   1.416       .  A
C2209      H2216   1.086       .  S
C2210      C2211   1.410       .  A
C2211      C2212   1.410       .  A
C2211      C2218   1.518       .  S
C2212      C2213   1.421       .  A
C2212      H2217   1.085       .  S
C2213      C2214   1.415       .  A
C2214      C2215   1.517       .  S
C2215      F2219   1.383       .  S
C2215      F2220   1.383       .  S
C2215      F2221   1.385       .  S
C2218      F2222   1.382       .  S
C2218      F2223   1.383       .  S
C2218      F2224   1.385       .  S
C2225      C2226   1.399       .  A
C2225      C2230   1.398       .  A
C2225      H2232   1.085       .  S
C2226      C2227   1.417       .  A
C2227      C2228   1.402       .  A
C2227      C2234   1.520       .  S
C2228      C2229   1.403       .  A
C2228      H2233   1.082       .  S
C2229      C2230   1.410       .  A
C2230      C2231   1.511       .  S
C2231      F2235   1.384       .  S
C2231      F2236   1.383       .  S
C2231      F2237   1.379       .  S
C2234      F2238   1.383       .  S
C2234      F2239   1.383       .  S
C2234      F2240   1.385       .  S
C2241      C2242   1.423       .  A
C2241      C2246   1.420       .  A
C2241      H2248   1.079       .  S
C2242      C2243   1.414       .  A
C2243      C2244   1.417       .  A
C2243      C2250   1.518       .  S
C2244      C2245   1.423       .  A
C2244      H2249   1.080       .  S
C2245      C2246   1.413       .  A
C2246      C2247   1.515       .  S
C2247      F2251   1.385       .  S
C2247      F2252   1.383       .  S
C2247      F2253   1.382       .  S
C2250      F2254   1.383       .  S
C2250      F2255   1.385       .  S
C2250      F2256   1.383       .  S
C2257      C2258   1.396       .  A
C2257      C2262   1.396       .  A
C2257      H2264   1.086       .  S
C2258      C2259   1.415       .  A
C2259      C2260   1.400       .  A
C2259      C2266   1.520       .  S
C2260      C2261   1.402       .  A
C2260      H2265   1.082       .  S
C2261      C2262   1.412       .  A
C2262      C2263   1.511       .  S
C2263      F2267   1.384       .  S
C2263      F2268   1.382       .  S
C2263      F2269   1.380       .  S
C2266      F2270   1.383       .  S
C2266      F2271   1.383       .  S
C2266      F2272   1.384       .  S
C2273      C2274   1.415       .  A
C2273      C2278   1.417       .  A
C2273      H2280   1.082       .  S
C2274      C2275   1.412       .  A
C2275      C2276   1.413       .  A
C2275      C2282   1.517       .  S
C2276      C2277   1.417       .  A
C2276      H2281   1.082       .  S
C2277      C2278   1.415       .  A
C2278      C2279   1.516       .  S
C2279      F2283   1.385       .  S
C2279      F2284   1.383       .  S
C2279      F2285   1.383       .  S
C2282      F2286   1.384       .  S
C2282      F2287   1.382       .  S
C2282      F2288   1.385       .  S
C2289      C2290   1.402       .  A
C2289      C2294   1.397       .  A
C2289      H2296   1.082       .  S
C2290      C2291   1.418       .  A
C2291      C2292   1.402       .  A
C2291      C2298   1.523       .  S
C2292      C2293   1.404       .  A
C2292      H2297   1.081       .  S
C2293      C2294   1.413       .  A
C2294      C2295   1.517       .  S
C2295      F2299   1.384       .  S
C2295      F2300   1.383       .  S
C2295      F2301   1.383       .  S
C2298      F2302   1.384       .  S
C2298      F2303   1.383       .  S
C2298      F2304   1.385       .  S
C2305      C2306   1.400       .  A
C2305      C2310   1.403       .  A
C2305      H2312   1.084       .  S
C2306      C2307   1.415       .  A
C2307      C2308   1.397       .  A
C2307      C2314   1.521       .  S
C2308      C2309   1.400       .  A
C2308      H2313   1.083       .  S
C2309      C2310   1.416       .  A
C2310      C2311   1.516       .  S
C2311      F2315   1.383       .  S
C2311      F2316   1.381       .  S
C2311      F2317   1.382       .  S
C2314      F2318   1.382       .  S
C2314      F2319   1.384       .  S
C2314      F2320   1.385       .  S
C2321      C2322   1.400       .  A
C2321      C2326   1.403       .  A
C2321      H2328   1.086       .  S
C2322      C2323   1.412       .  A
C2323      C2324   1.398       .  A
C2323      C2330   1.516       .  S
C2324      C2325   1.402       .  A
C2324      H2329   1.089       .  S
C2325      C2326   1.424       .  A
C2326      C2327   1.522       .  S
C2327      F2331   1.385       .  S
C2327      F2332   1.383       .  S
C2327      F2333   1.384       .  S
C2330      F2334   1.384       .  S
C2330      F2335   1.383       .  S
C2330      F2336   1.383       .  S
C2337      C2338   1.401       .  A
C2337      C2342   1.400       .  A
C2337      H2344   1.085       .  S
C2338      C2339   1.420       .  A
C2339      C2340   1.400       .  A
C2339      C2346   1.521       .  S
C2340      C2341   1.399       .  A
C2340      H2345   1.085       .  S
C2341      C2342   1.409       .  A
C2342      C2343   1.512       .  S
C2343      F2347   1.385       .  S
C2343      F2348   1.384       .  S
C2343      F2349   1.380       .  S
C2346      F2350   1.382       .  S
C2346      F2351   1.383       .  S
C2346      F2352   1.386       .  S
C2353      C2354   1.401       .  A
C2353      C2358   1.397       .  A
C2353      H2360   1.085       .  S
C2354      C2355   1.420       .  A
C2355      C2356   1.402       .  A
C2355      C2362   1.521       .  S
C2356      C2357   1.402       .  A
C2356      H2361   1.083       .  S
C2357      C2358   1.409       .  A
C2358      C2359   1.512       .  S
C2359      F2363   1.385       .  S
C2359      F2364   1.382       .  S
C2359      F2365   1.384       .  S
C2362      F2366   1.383       .  S
C2362      F2367   1.383       .  S
C2362      F2368   1.385       .  S
C2369      C2370   1.401       .  A
C2369      C2374   1.399       .  A
C2369      H2376   1.085       .  S
C2370      C2371   1.423       .  A
C2371      C2372   1.400       .  A
C2371      C2378   1.523       .  S
C2372      C2373   1.401       .  A
C2372      H2377   1.082       .  S
C2373      C2374   1.417       .  A
C2374      C2375   1.517       .  S
C2375      F2379   1.384       .  S
C2375      F2380   1.382       .  S
C2375      F2381   1.383       .  S
C2378      F2382   1.383       .  S
C2378      F2383   1.384       .  S
C2378      F2384   1.385       .  S
C2385      C2386   1.403       .  A
C2385      C2390   1.403       .  A
C2385      H2392   1.080       .  S
C2386      C2387   1.411       .  A
C2387      C2388   1.402       .  A
C2387      C2394   1.517       .  S
C2388      C2389   1.407       .  A
C2388      H2393   1.081       .  S
C2389      C2390   1.423       .  A
C2390      C2391   1.522       .  S
C2391      F2395   1.385       .  S
C2391      F2396   1.383       .  S
C2391      F2397   1.383       .  S
C2394      F2398   1.384       .  S
C2394      F2399   1.382       .  S
C2394      F2400   1.384       .  S
C2401      C2402   1.398       .  A
C2401      C2406   1.401       .  A
C2401      H2408   1.084       .  S
C2402      C2403   1.414       .  A
C2403      C2404   1.401       .  A
C2403      C2410   1.520       .  S
C2404      C2405   1.403       .  A
C2404      H2409   1.083       .  S
C2405      C2406   1.415       .  A
C2406      C2407   1.514       .  S
C2407      F2411   1.382       .  S
C2407      F2412   1.382       .  S
C2407      F2413   1.384       .  S
C2410      F2414   1.383       .  S
C2410      F2415   1.382       .  S
C2410      F2416   1.386       .  S
C2417      C2418   1.416       .  A
C2417      C2422   1.421       .  A
C2417      H2424   1.085       .  S
C2418      C2419   1.413       .  A
C2419      C2420   1.414       .  A
C2419      C2426   1.516       .  S
C2420      C2421   1.417       .  A
C2420      H2425   1.084       .  S
C2421      C2422   1.419       .  A
C2422      C2423   1.517       .  S
C2423      F2427   1.385       .  S
C2423      F2428   1.383       .  S
C2423      F2429   1.383       .  S
C2426      F2430   1.382       .  S
C2426      F2431   1.383       .  S
C2426      F2432   1.385       .  S
C2433      C2434   1.407   1_545  A
C2433      C2438   1.401       .  A
C2433      H2440   1.081       .  S
C2434      C2435   1.424       .  A
C2435      C2436   1.404   1_565  A
C2435      C2442   1.520       .  S
C2436      C2437   1.402       .  A
C2436      H2441   1.080       .  S
C2437      C2438   1.413       .  A
C2438      C2439   1.516       .  S
C2439      F2443   1.383       .  S
C2439      F2444   1.383       .  S
C2439      F2445   1.384       .  S
C2442      F2446   1.383       .  S
C2442      F2447   1.383       .  S
C2442      F2448   1.385       .  S
C2449      C2450   1.397       .  A
C2449      C2454   1.396       .  A
C2449      H2456   1.086       .  S
C2450      C2451   1.418       .  A
C2451      C2452   1.402   1_554  A
C2451      C2458   1.520       .  S
C2452      C2453   1.402       .  A
C2452      H2457   1.082       .  S
C2453      C2454   1.410   1_556  A
C2454      C2455   1.509       .  S
C2455      F2459   1.378       .  S
C2455      F2460   1.382   1_554  S
C2455      F2461   1.383   1_554  S
C2458      F2462   1.383       .  S
C2458      F2463   1.382       .  S
C2458      F2464   1.385       .  S
C2465      C2466   1.413       .  A
C2465      C2470   1.420       .  A
C2465      H2472   1.080       .  S
C2466      C2467   1.411       .  A
C2467      C2468   1.411       .  A
C2467      C2474   1.515       .  S
C2468      C2469   1.413       .  A
C2468      H2473   1.079       .  S
C2469      C2470   1.416       .  A
C2470      C2471   1.516       .  S
C2471      F2475   1.384       .  S
C2471      F2476   1.384       .  S
C2471      F2477   1.382       .  S
C2474      F2478   1.383       .  S
C2474      F2479   1.383       .  S
C2474      F2480   1.384       .  S
C2481      C2482   1.403       .  A
C2481      C2486   1.404       .  A
C2481      H2488   1.086       .  S
C2482      C2483   1.412       .  A
C2483      C2484   1.398       .  A
C2483      C2490   1.513       .  S
C2484      C2485   1.400       .  A
C2484      H2489   1.087       .  S
C2485      C2486   1.421       .  A
C2486      C2487   1.520   1_554  S
C2487      F2491   1.385       .  S
C2487      F2492   1.383       .  S
C2487      F2493   1.383       .  S
C2490      F2494   1.384       .  S
C2490      F2495   1.382       .  S
C2490      F2496   1.381       .  S
C2497      C2498   1.414       .  A
C2497      C2502   1.417       .  A
C2497      H2504   1.082       .  S
C2498      C2499   1.409       .  A
C2499      C2500   1.410       .  A
C2499      C2506   1.515       .  S
C2500      C2501   1.418       .  A
C2500      H2505   1.082       .  S
C2501      C2502   1.416       .  A
C2502      C2503   1.516       .  S
C2503      F2507   1.385       .  S
C2503      F2508   1.383       .  S
C2503      F2509   1.383       .  S
C2506      F2510   1.382       .  S
C2506      F2511   1.385       .  S
C2506      F2512   1.382       .  S
C2513      C2514   1.420       .  A
C2513      C2518   1.412       .  A
C2513      H2520   1.085       .  S
C2514      C2515   1.417       .  A
C2515      C2516   1.417       .  A
C2515      C2522   1.516       .  S
C2516      C2517   1.415       .  A
C2516      H2521   1.086       .  S
C2517      C2518   1.410       .  A
C2518      C2519   1.516       .  S
C2519      F2523   1.384       .  S
C2519      F2524   1.382       .  S
C2519      F2525   1.383       .  S
C2522      F2526   1.382       .  S
C2522      F2527   1.383       .  S
C2522      F2528   1.385       .  S
C2529      C2530   1.399       .  A
C2529      C2534   1.399       .  A
C2529      H2536   1.083   1_545  S
C2530      C2531   1.414       .  A
C2531      C2532   1.406       .  A
C2531      C2538   1.518       .  S
C2532      C2533   1.403       .  A
C2532      H2537   1.083       .  S
C2533      C2534   1.418       .  A
C2534      C2535   1.522       .  S
C2535      F2539   1.385       .  S
C2535      F2540   1.382       .  S
C2535      F2541   1.384       .  S
C2538      F2542   1.384   1_545  S
C2538      F2543   1.382       .  S
C2538      F2544   1.383       .  S
C2545      C2546   1.401       .  A
C2545      C2550   1.399       .  A
C2545      H2552   1.086       .  S
C2546      C2547   1.411       .  A
C2547      C2548   1.400       .  A
C2547      C2554   1.515       .  S
C2548      C2549   1.399       .  A
C2548      H2553   1.087       .  S
C2549      C2550   1.416       .  A
C2550      C2551   1.521       .  S
C2551      F2555   1.385       .  S
C2551      F2556   1.383       .  S
C2551      F2557   1.382       .  S
C2554      F2558   1.382       .  S
C2554      F2559   1.382       .  S
C2554      F2560   1.384       .  S
C2561      C2562   1.406       .  A
C2561      C2566   1.402       .  A
C2561      H2568   1.080       .  S
C2562      C2563   1.420       .  A
C2563      C2564   1.406       .  A
C2563      C2570   1.519       .  S
C2564      C2565   1.406       .  A
C2564      H2569   1.080       .  S
C2565      C2566   1.418       .  A
C2566      C2567   1.520       .  S
C2567      F2571   1.384       .  S
C2567      F2572   1.383       .  S
C2567      F2573   1.382       .  S
C2570      F2574   1.383       .  S
C2570      F2575   1.383       .  S
C2570      F2576   1.386       .  S
C2577      C2578   1.420       .  A
C2577      C2582   1.414       .  A
C2577      H2584   1.081       .  S
C2578      C2579   1.409       .  A
C2579      C2580   1.409       .  A
C2579      C2586   1.517       .  S
C2580      C2581   1.421       .  A
C2580      H2585   1.079       .  S
C2581      C2582   1.412       .  A
C2582      C2583   1.517       .  S
C2583      F2587   1.385       .  S
C2583      F2588   1.383       .  S
C2583      F2589   1.383       .  S
C2586      F2590   1.382       .  S
C2586      F2591   1.382       .  S
C2586      F2592   1.385       .  S
C2593      C2594   1.404       .  A
C2593      C2598   1.398       .  A
C2593      H2600   1.085       .  S
C2594      C2595   1.420       .  A
C2595      C2596   1.405       .  A
C2595      C2602   1.519       .  S
C2596      C2597   1.404       .  A
C2596      H2601   1.083       .  S
C2597      C2598   1.409       .  A
C2598      C2599   1.511       .  S
C2599      F2603   1.384       .  S
C2599      F2604   1.383       .  S
C2599      F2605   1.383       .  S
C2602      F2606   1.383       .  S
C2602      F2607   1.383       .  S
C2602      F2608   1.385       .  S
C2609      C2610   1.421       .  A
C2609      C2614   1.419       .  A
C2609      H2616   1.088       .  S
C2610      C2611   1.416       .  A
C2611      C2612   1.413       .  A
C2611      C2618   1.518       .  S
C2612      C2613   1.418       .  A
C2612      H2617   1.087       .  S
C2613      C2614   1.414       .  A
C2614      C2615   1.516       .  S
C2615      F2619   1.385       .  S
C2615      F2620   1.382       .  S
C2615      F2621   1.383       .  S
C2618      F2622   1.383       .  S
C2618      F2623   1.383       .  S
C2618      F2624   1.385       .  S
C2625      C2626   1.406       .  A
C2625      C2630   1.405       .  A
C2625      H2632   1.080       .  S
C2626      C2627   1.422       .  A
C2627      C2628   1.405       .  A
C2627      C2634   1.521       .  S
C2628      C2629   1.404       .  A
C2628      H2633   1.079       .  S
C2629      C2630   1.413       .  A
C2630      C2631   1.517       .  S
C2631      F2635   1.385       .  S
C2631      F2636   1.384       .  S
C2631      F2637   1.381       .  S
C2634      F2638   1.384       .  S
C2634      F2639   1.383       .  S
C2634      F2640   1.385       .  S
C2641      C2642   1.399       .  A
C2641      C2646   1.398       .  A
C2641      H2648   1.084       .  S
C2642      C2643   1.418       .  A
C2643      C2644   1.400       .  A
C2643      C2650   1.521       .  S
C2644      C2645   1.403       .  A
C2644      H2649   1.083       .  S
C2645      C2646   1.413       .  A
C2646      C2647   1.513       .  S
C2647      F2651   1.385       .  S
C2647      F2652   1.381       .  S
C2647      F2653   1.383       .  S
C2650      F2654   1.384       .  S
C2650      F2655   1.382       .  S
C2650      F2656   1.385       .  S
C2657      C2658   1.409       .  A
C2657      C2662   1.411       .  A
C2657      H2664   1.084       .  S
C2658      C2659   1.413       .  A
C2659      C2660   1.417       .  A
C2659      C2666   1.514       .  S
C2660      C2661   1.411       .  A
C2660      H2665   1.083       .  S
C2661      C2662   1.416       .  A
C2662      C2663   1.517       .  S
C2663      F2667   1.386       .  S
C2663      F2668   1.382       .  S
C2663      F2669   1.383       .  S
C2666      F2670   1.383       .  S
C2666      F2671   1.383       .  S
C2666      F2672   1.385       .  S
C2673      C2674   1.403       .  A
C2673      C2678   1.400       .  A
C2673      H2680   1.083       .  S
C2674      C2675   1.417       .  A
C2675      C2676   1.401       .  A
C2675      C2682   1.518       .  S
C2676      C2677   1.403       .  A
C2676      H2681   1.083       .  S
C2677      C2678   1.420       .  A
C2678      C2679   1.522       .  S
C2679      F2683   1.385       .  S
C2679      F2684   1.383       .  S
C2679      F2685   1.383       .  S
C2682      F2686   1.383       .  S
C2682      F2687   1.382       .  S
C2682      F2688   1.385       .  S
C2689      C2690   1.420       .  A
C2689      C2694   1.410       .  A
C2689      H2696   1.080       .  S
C2690      C2691   1.412       .  A
C2691      C2692   1.417       .  A
C2691      C2698   1.517       .  S
C2692      C2693   1.422       .  A
C2692      H2697   1.082       .  S
C2693      C2694   1.412       .  A
C2694      C2695   1.519       .  S
C2695      F2699   1.383       .  S
C2695      F2700   1.385       .  S
C2695      F2701   1.383       .  S
C2698      F2702   1.383       .  S
C2698      F2703   1.383       .  S
C2698      F2704   1.385       .  S
C2705      C2706   1.415       .  A
C2705      C2710   1.417       .  A
C2705      H2712   1.083       .  S
C2706      C2707   1.412       .  A
C2707      C2708   1.413       .  A
C2707      C2714   1.517       .  S
C2708      C2709   1.421       .  A
C2708      H2713   1.082       .  S
C2709      C2710   1.416       .  A
C2710      C2711   1.516       .  S
C2711      F2715   1.385       .  S
C2711      F2716   1.383       .  S
C2711      F2717   1.383       .  S
C2714      F2718   1.383       .  S
C2714      F2719   1.383       .  S
C2714      F2720   1.385       .  S
C2721      C2722   1.401       .  A
C2721      C2726   1.399       .  A
C2721      H2728   1.084       .  S
C2722      C2723   1.418       .  A
C2723      C2724   1.402       .  A
C2723      C2730   1.523       .  S
C2724      C2725   1.403       .  A
C2724      H2729   1.083       .  S
C2725      C2726   1.413       .  A
C2726      C2727   1.518       .  S
C2727      F2731   1.383       .  S
C2727      F2732   1.383       .  S
C2727      F2733   1.383       .  S
C2730      F2734   1.383       .  S
C2730      F2735   1.385       .  S
C2730      F2736   1.384       .  S
C2737      C2738   1.401       .  A
C2737      C2742   1.402       .  A
C2737      H2744   1.079       .  S
C2738      C2739   1.412       .  A
C2739      C2740   1.400       .  A
C2739      C2746   1.515       .  S
C2740      C2741   1.403       .  A
C2740      H2745   1.081       .  S
C2741      C2742   1.424       .  A
C2742      C2743   1.524       .  S
C2743      F2747   1.385       .  S
C2743      F2748   1.380       .  S
C2743      F2749   1.383       .  S
C2746      F2750   1.384       .  S
C2746      F2751   1.383       .  S
C2746      F2752   1.384       .  S
C2753      C2754   1.402       .  A
C2753      C2758   1.396       .  A
C2753      H2760   1.085       .  S
C2754      C2755   1.419       .  A
C2755      C2756   1.400       .  A
C2755      C2762   1.522       .  S
C2756      C2757   1.402       .  A
C2756      H2761   1.084       .  S
C2757      C2758   1.410       .  A
C2758      C2759   1.515       .  S
C2759      F2763   1.384       .  S
C2759      F2764   1.383       .  S
C2759      F2765   1.383       .  S
C2762      F2766   1.382       .  S
C2762      F2767   1.384       .  S
C2762      F2768   1.385       .  S
C2769      C2770   1.403       .  A
C2769      C2774   1.401       .  A
C2769      H2776   1.081       .  S
C2770      C2771   1.411       .  A
C2771      C2772   1.399       .  A
C2771      C2778   1.516       .  S
C2772      C2773   1.404       .  A
C2772      H2777   1.083       .  S
C2773      C2774   1.422       .  A
C2774      C2775   1.522       .  S
C2775      F2779   1.385       .  S
C2775      F2780   1.384       .  S
C2775      F2781   1.383       .  S
C2778      F2782   1.383       .  S
C2778      F2783   1.382       .  S
C2778      F2784   1.384       .  S
C2785      C2786   1.394       .  A
C2785      C2790   1.391       .  A
C2785      H2792   1.086       .  S
C2786      C2787   1.409       .  A
C2787      C2788   1.403       .  A
C2787      C2794   1.516       .  S
C2788      C2789   1.401       .  A
C2788      H2793   1.086       .  S
C2789      C2790   1.416       .  A
C2790      C2791   1.523       .  S
C2791      F2795   1.385       .  S
C2791      F2796   1.383       .  S
C2791      F2797   1.382       .  S
C2794      F2798   1.383       .  S
C2794      F2799   1.383       .  S
C2794      F2800   1.384       .  S
C2801      C2802   1.423       .  A
C2801      C2806   1.418       .  A
C2801      H2808   1.079       .  S
C2802      C2803   1.416       .  A
C2803      C2804   1.413       .  A
C2803      C2810   1.518       .  S
C2804      C2805   1.416       .  A
C2804      H2809   1.079       .  S
C2805      C2806   1.410       .  A
C2806      C2807   1.517       .  S
C2807      F2811   1.384       .  S
C2807      F2812   1.383       .  S
C2807      F2813   1.384       .  S
C2810      F2814   1.383       .  S
C2810      F2815   1.383       .  S
C2810      F2816   1.385       .  S
C2817      C2818   1.418       .  A
C2817      C2822   1.420       .  A
C2817      H2824   1.080       .  S
C2818      C2819   1.409       .  A
C2819      C2820   1.415       .  A
C2819      C2826   1.517       .  S
C2820      C2821   1.421       .  A
C2820      H2825   1.078       .  S
C2821      C2822   1.416       .  A
C2822      C2823   1.518       .  S
C2823      F2827   1.385       .  S
C2823      F2828   1.383       .  S
C2823      F2829   1.383       .  S
C2826      F2830   1.383       .  S
C2826      F2831   1.383       .  S
C2826      F2832   1.382       .  S
C2833      C2834   1.404       .  A
C2833      C2838   1.400       .  A
C2833      H2840   1.078       .  S
C2834      C2835   1.421       .  A
C2835      C2836   1.407       .  A
C2835      C2842   1.519   1_554  S
C2836      C2837   1.406       .  A
C2836      H2841   1.078       .  S
C2837      C2838   1.415       .  A
C2838      C2839   1.517       .  S
C2839      F2843   1.384       .  S
C2839      F2844   1.382       .  S
C2839      F2845   1.384       .  S
C2842      F2846   1.383       .  S
C2842      F2847   1.384       .  S
C2842      F2848   1.385       .  S
C2849      C2850   1.396       .  A
C2849      C2854   1.396       .  A
C2849      H2856   1.087       .  S
C2850      C2851   1.418       .  A
C2851      C2852   1.401   1_455  A
C2851      C2858   1.520       .  S
C2852      C2853   1.399       .  A
C2852      H2857   1.087       .  S
C2853      C2854   1.409   1_655  A
C2854      C2855   1.507   1_455  S
C2855      F2859   1.385   1_655  S
C2855      F2860   1.374   1_655  S
C2855      F2861   1.384       .  S
C2858      F2862   1.384       .  S
C2858      F2863   1.383       .  S
C2858      F2864   1.385       .  S
C2865      C2866   1.418       .  A
C2865      C2870   1.411       .  A
C2865      H2872   1.082       .  S
C2866      C2867   1.412       .  A
C2867      C2868   1.419       .  A
C2867      C2874   1.515       .  S
C2868      C2869   1.417       .  A
C2868      H2873   1.082       .  S
C2869      C2870   1.410       .  A
C2870      C2871   1.517       .  S
C2871      F2875   1.384       .  S
C2871      F2876   1.382       .  S
C2871      F2877   1.383       .  S
C2874      F2878   1.384       .  S
C2874      F2879   1.384       .  S
C2874      F2880   1.383       .  S
C2881      C2882   1.403       .  A
C2881      C2886   1.399       .  A
C2881      H2888   1.084       .  S
C2882      C2883   1.411       .  A
C2883      C2884   1.398       .  A
C2883      C2890   1.514       .  S
C2884      C2885   1.404       .  A
C2884      H2889   1.088       .  S
C2885      C2886   1.422       .  A
C2886      C2887   1.522       .  S
C2887      F2891   1.386       .  S
C2887      F2892   1.383       .  S
C2887      F2893   1.383       .  S
C2890      F2894   1.382       .  S
C2890      F2895   1.383       .  S
C2890      F2896   1.384       .  S
C2897      C2898   1.415       .  A
C2897      C2902   1.411       .  A
C2897      H2904   1.081       .  S
C2898      C2899   1.409       .  A
C2899      C2900   1.412       .  A
C2899      C2906   1.514       .  S
C2900      C2901   1.413       .  A
C2900      H2905   1.082       .  S
C2901      C2902   1.413       .  A
C2902      C2903   1.518       .  S
C2903      F2907   1.386       .  S
C2903      F2908   1.383       .  S
C2903      F2909   1.382       .  S
C2906      F2910   1.383       .  S
C2906      F2911   1.383       .  S
C2906      F2912   1.384       .  S
C2913      C2914   1.402       .  A
C2913      C2918   1.404   1_455  A
C2913      H2920   1.083       .  S
C2914      C2915   1.411       .  A
C2915      C2916   1.397       .  A
C2915      C2922   1.513       .  S
C2916      C2917   1.402   1_455  A
C2916      H2921   1.086       .  S
C2917      C2918   1.424       .  A
C2918      C2919   1.522       .  S
C2919      F2923   1.385       .  S
C2919      F2924   1.384       .  S
C2919      F2925   1.383       .  S
C2922      F2926   1.383       .  S
C2922      F2927   1.382       .  S
C2922      F2928   1.384       .  S
C2929      C2930   1.420       .  A
C2929      C2934   1.415       .  A
C2929      H2936   1.083       .  S
C2930      C2931   1.416       .  A
C2931      C2932   1.422       .  A
C2931      C2938   1.517       .  S
C2932      C2933   1.423       .  A
C2932      H2937   1.085       .  S
C2933      C2934   1.415       .  A
C2934      C2935   1.516       .  S
C2935      F2939   1.385       .  S
C2935      F2940   1.382       .  S
C2935      F2941   1.383       .  S
C2938      F2942   1.382       .  S
C2938      F2943   1.384       .  S
C2938      F2944   1.385       .  S
C2945      C2946   1.403       .  A
C2945      C2950   1.399       .  A
C2945      H2952   1.085       .  S
C2946      C2947   1.424       .  A
C2947      C2948   1.404       .  A
C2947      C2954   1.520       .  S
C2948      C2949   1.401       .  A
C2948      H2953   1.084       .  S
C2949      C2950   1.417       .  A
C2950      C2951   1.520       .  S
C2951      F2955   1.385       .  S
C2951      F2956   1.381       .  S
C2951      F2957   1.383       .  S
C2954      F2958   1.383       .  S
C2954      F2959   1.384       .  S
C2954      F2960   1.385       .  S
C2961      C2962   1.417       .  A
C2961      C2966   1.422       .  A
C2961      H2968   1.084       .  S
C2962      C2963   1.410       .  A
C2963      C2964   1.415       .  A
C2963      C2970   1.518       .  S
C2964      C2965   1.422       .  A
C2964      H2969   1.082       .  S
C2965      C2966   1.418       .  A
C2966      C2967   1.515       .  S
C2967      F2971   1.385       .  S
C2967      F2972   1.383       .  S
C2967      F2973   1.383       .  S
C2970      F2974   1.382       .  S
C2970      F2975   1.384       .  S
C2970      F2976   1.384       .  S
C2977      C2978   1.402       .  A
C2977      C2982   1.399       .  A
C2977      H2984   1.083       .  S
C2978      C2979   1.423       .  A
C2979      C2980   1.406       .  A
C2979      C2986   1.521   1_554  S
C2980      C2981   1.403       .  A
C2980      H2985   1.084       .  S
C2981      C2982   1.411       .  A
C2982      C2983   1.514       .  S
C2983      F2987   1.384       .  S
C2983      F2988   1.382       .  S
C2983      F2989   1.383       .  S
C2986      F2990   1.383       .  S
C2986      F2991   1.381       .  S
C2986      F2992   1.385       .  S
C2993      C2994   1.401       .  A
C2993      C2998   1.401       .  A
C2993      H3000   1.082       .  S
C2994      C2995   1.413       .  A
C2995      C2996   1.399       .  A
C2995      C3002   1.517       .  S
C2996      C2997   1.402       .  A
C2996      H3001   1.084       .  S
C2997      C2998   1.422       .  A
C2998      C2999   1.520       .  S
C2999      F3003   1.385       .  S
C2999      F3004   1.383       .  S
C2999      F3005   1.383       .  S
C3002      F3006   1.384       .  S
C3002      F3007   1.381       .  S
C3002      F3008   1.384       .  S
C3009      C3010   1.402   1_545  A
C3009      C3014   1.397       .  A
C3009      H3016   1.084       .  S
C3010      C3011   1.423       .  A
C3011      C3012   1.404   1_565  A
C3011      C3018   1.521       .  S
C3012      C3013   1.401       .  A
C3012      H3017   1.082       .  S
C3013      C3014   1.412       .  A
C3014      C3015   1.515       .  S
C3015      F3019   1.384       .  S
C3015      F3020   1.384       .  S
C3015      F3021   1.383       .  S
C3018      F3022   1.380       .  S
C3018      F3023   1.383       .  S
C3018      F3024   1.386       .  S
C3025      C3026   1.400       .  A
C3025      C3030   1.397       .  A
C3025      H3032   1.082       .  S
C3026      C3027   1.412       .  A
C3027      C3028   1.397       .  A
C3027      C3034   1.517       .  S
C3028      C3029   1.402       .  A
C3028      H3033   1.085       .  S
C3029      C3030   1.421       .  A
C3030      C3031   1.523       .  S
C3031      F3035   1.385       .  S
C3031      F3036   1.382       .  S
C3031      F3037   1.384       .  S
C3034      F3038   1.383       .  S
C3034      F3039   1.383       .  S
C3034      F3040   1.383       .  S
C3041      C3042   1.402       .  A
C3041      C3046   1.405   1_655  A
C3041      H3048   1.085       .  S
C3042      C3043   1.414   1_655  A
C3043      C3044   1.396       .  A
C3043      C3050   1.522       .  S
C3044      C3045   1.397       .  A
C3044      H3049   1.084       .  S
C3045      C3046   1.414       .  A
C3046      C3047   1.517       .  S
C3047      F3051   1.384   1_455  S
C3047      F3052   1.382       .  S
C3047      F3053   1.383       .  S
C3050      F3054   1.382       .  S
C3050      F3055   1.383   1_455  S
C3050      F3056   1.384       .  S
C3057      C3058   1.402       .  A
C3057      C3062   1.399       .  A
C3057      H3064   1.084       .  S
C3058      C3059   1.411       .  A
C3059      C3060   1.395       .  A
C3059      C3066   1.509       .  S
C3060      C3061   1.395       .  A
C3060      H3065   1.087       .  S
C3061      C3062   1.418       .  A
C3062      C3063   1.524       .  S
C3063      F3067   1.384       .  S
C3063      F3068   1.384       .  S
C3063      F3069   1.384       .  S
C3066      F3070   1.379       .  S
C3066      F3071   1.382       .  S
C3066      F3072   1.384       .  S
C3073      C3074   1.402       .  A
C3073      C3078   1.405       .  A
C3073      H3080   1.085       .  S
C3074      C3075   1.412       .  A
C3075      C3076   1.401       .  A
C3075      C3082   1.512       .  S
C3076      C3077   1.404       .  A
C3076      H3081   1.088       .  S
C3077      C3078   1.424       .  A
C3078      C3079   1.520       .  S
C3079      F3083   1.386       .  S
C3079      F3084   1.383       .  S
C3079      F3085   1.383       .  S
C3082      F3086   1.383       .  S
C3082      F3087   1.382       .  S
C3082      F3088   1.383       .  S
C3089      C3090   1.405       .  A
C3089      C3094   1.399       .  A
C3089      H3096   1.092       .  S
C3090      C3091   1.421       .  A
C3091      C3092   1.403       .  A
C3091      C3098   1.518       .  S
C3092      C3093   1.403       .  A
C3092      H3097   1.088       .  S
C3093      C3094   1.408       .  A
C3094      C3095   1.514       .  S
C3095      F3099   1.381       .  S
C3095      F3100   1.382       .  S
C3095      F3101   1.385       .  S
C3098      F3102   1.382       .  S
C3098      F3103   1.380       .  S
C3098      F3104   1.385       .  S
C3105      C3106   1.402       .  A
C3105      C3110   1.401       .  A
C3105      H3112   1.086       .  S
C3106      C3107   1.409       .  A
C3107      C3108   1.397       .  A
C3107      C3114   1.511       .  S
C3108      C3109   1.399       .  A
C3108      H3113   1.088       .  S
C3109      C3110   1.416       .  A
C3110      C3111   1.519       .  S
C3111      F3115   1.385       .  S
C3111      F3116   1.382       .  S
C3111      F3117   1.384       .  S
C3114      F3118   1.384       .  S
C3114      F3119   1.381       .  S
C3114      F3120   1.384       .  S
C3121      C3122   1.403       .  A
C3121      C3126   1.407       .  A
C3121      H3128   1.084       .  S
C3122      C3123   1.411       .  A
C3123      C3124   1.395       .  A
C3123      C3130   1.512       .  S
C3124      C3125   1.403       .  A
C3124      H3129   1.084       .  S
C3125      C3126   1.421       .  A
C3126      C3127   1.515       .  S
C3127      F3131   1.385       .  S
C3127      F3132   1.382       .  S
C3127      F3133   1.384       .  S
C3130      F3134   1.383       .  S
C3130      F3135   1.384       .  S
C3130      F3136   1.380       .  S
C3137      C3138   1.404       .  A
C3137      C3142   1.400       .  A
C3137      H3144   1.082       .  S
C3138      C3139   1.424       .  A
C3139      C3140   1.406       .  A
C3139      C3146   1.519       .  S
C3140      C3141   1.401       .  A
C3140      H3145   1.083   1_554  S
C3141      C3142   1.411       .  A
C3142      C3143   1.516       .  S
C3143      F3147   1.377       .  S
C3143      F3148   1.383       .  S
C3143      F3149   1.385       .  S
C3146      F3150   1.383       .  S
C3146      F3151   1.383       .  S
C3146      F3152   1.385   1_554  S
C3153      C3154   1.402       .  A
C3153      C3158   1.400       .  A
C3153      H3160   1.083       .  S
C3154      C3155   1.421       .  A
C3155      C3156   1.405   1_545  A
C3155      C3162   1.521       .  S
C3156      C3157   1.405   1_565  A
C3156      H3161   1.083       .  S
C3157      C3158   1.414       .  A
C3158      C3159   1.517       .  S
C3159      F3163   1.384       .  S
C3159      F3164   1.384   1_545  S
C3159      F3165   1.381       .  S
C3162      F3166   1.382       .  S
C3162      F3167   1.386   1_545  S
C3162      F3168   1.384       .  S
C3169      C3170   1.416       .  A
C3169      C3174   1.421       .  A
C3169      H3176   1.081       .  S
C3170      C3171   1.410       .  A
C3171      C3172   1.410       .  A
C3171      C3178   1.517       .  S
C3172      C3173   1.415       .  A
C3172      H3177   1.081       .  S
C3173      C3174   1.415       .  A
C3174      C3175   1.515       .  S
C3175      F3179   1.385       .  S
C3175      F3180   1.383       .  S
C3175      F3181   1.383       .  S
C3178      F3182   1.383       .  S
C3178      F3183   1.383       .  S
C3178      F3184   1.385       .  S
C3185      C3186   1.424       .  A
C3185      C3190   1.415       .  A
C3185      H3192   1.084       .  S
C3186      C3187   1.415       .  A
C3187      C3188   1.417       .  A
C3187      C3194   1.515       .  S
C3188      C3189   1.417       .  A
C3188      H3193   1.086       .  S
C3189      C3190   1.410       .  A
C3190      C3191   1.519       .  S
C3191      F3195   1.385       .  S
C3191      F3196   1.384       .  S
C3191      F3197   1.383       .  S
C3194      F3198   1.383       .  S
C3194      F3199   1.383       .  S
C3194      F3200   1.385       .  S
C3201      C3202   1.404       .  A
C3201      C3206   1.398       .  A
C3201      H3208   1.085       .  S
C3202      C3203   1.421       .  A
C3203      C3204   1.401       .  A
C3203      C3210   1.521       .  S
C3204      C3205   1.401       .  A
C3204      H3209   1.082       .  S
C3205      C3206   1.412       .  A
C3206      C3207   1.518       .  S
C3207      F3211   1.384       .  S
C3207      F3212   1.383       .  S
C3207      F3213   1.384       .  S
C3210      F3214   1.384       .  S
C3210      F3215   1.382       .  S
C3210      F3216   1.385       .  S
C3217      C3218   1.406       .  A
C3217      C3222   1.403       .  A
C3217      H3224   1.084       .  S
C3218      C3219   1.426       .  A
C3219      C3220   1.404       .  A
C3219      C3226   1.521       .  S
C3220      C3221   1.399       .  A
C3220      H3225   1.082       .  S
C3221      C3222   1.411       .  A
C3222      C3223   1.517       .  S
C3223      F3227   1.382       .  S
C3223      F3228   1.384       .  S
C3223      F3229   1.384       .  S
C3226      F3230   1.383       .  S
C3226      F3231   1.384       .  S
C3226      F3232   1.385       .  S
C3233      C3234   1.399   1_455  A
C3233      C3238   1.395       .  A
C3233      H3240   1.085       .  S
C3234      C3235   1.420       .  A
C3235      C3236   1.401   1_655  A
C3235      C3242   1.522       .  S
C3236      C3237   1.402       .  A
C3236      H3241   1.083       .  S
C3237      C3238   1.412       .  A
C3238      C3239   1.516       .  S
C3239      F3243   1.384       .  S
C3239      F3244   1.382       .  S
C3239      F3245   1.384       .  S
C3242      F3246   1.383       .  S
C3242      F3247   1.381       .  S
C3242      F3248   1.386       .  S
C3249      C3250   1.403       .  A
C3249      C3254   1.398       .  A
C3249      H3256   1.087       .  S
C3250      C3251   1.423       .  A
C3251      C3252   1.399       .  A
C3251      C3258   1.522       .  S
C3252      C3253   1.400       .  A
C3252      H3257   1.085       .  S
C3253      C3254   1.412       .  A
C3254      C3255   1.515       .  S
C3255      F3259   1.384       .  S
C3255      F3260   1.383       .  S
C3255      F3261   1.382       .  S
C3258      F3262   1.383       .  S
C3258      F3263   1.382       .  S
C3258      F3264   1.386       .  S
C3265      C3266   1.402       .  A
C3265      C3270   1.394       .  A
C3265      H3272   1.085       .  S
C3266      C3267   1.424       .  A
C3267      C3268   1.403   1_554  A
C3267      C3274   1.519       .  S
C3268      C3269   1.401   1_556  A
C3268      H3273   1.084       .  S
C3269      C3270   1.407       .  A
C3270      C3271   1.510       .  S
C3271      F3275   1.383       .  S
C3271      F3276   1.384   1_554  S
C3271      F3277   1.382       .  S
C3274      F3278   1.383       .  S
C3274      F3279   1.383       .  S
C3274      F3280   1.385   1_554  S
C3281      C3282   1.404       .  A
C3281      C3286   1.406       .  A
C3281      H3288   1.084       .  S
C3282      C3283   1.411       .  A
C3283      C3284   1.398       .  A
C3283      C3290   1.515       .  S
C3284      C3285   1.404       .  A
C3284      H3289   1.084       .  S
C3285      C3286   1.422       .  A
C3286      C3287   1.519       .  S
C3287      F3291   1.385       .  S
C3287      F3292   1.384       .  S
C3287      F3293   1.383       .  S
C3290      F3294   1.383       .  S
C3290      F3295   1.383       .  S
C3290      F3296   1.383       .  S
C3297      C3298   1.402       .  A
C3297      C3302   1.400       .  A
C3297      H3304   1.078       .  S
C3298      C3299   1.419       .  A
C3299      C3300   1.401       .  A
C3299      C3306   1.522       .  S
C3300      C3301   1.403       .  A
C3300      H3305   1.081   1_455  S
C3301      C3302   1.410       .  A
C3302      C3303   1.515       .  S
C3303      F3307   1.383       .  S
C3303      F3308   1.382       .  S
C3303      F3309   1.384   1_455  S
C3306      F3310   1.384       .  S
C3306      F3311   1.383       .  S
C3306      F3312   1.385       .  S
C3313      C3314   1.414       .  A
C3313      C3318   1.415       .  A
C3313      H3320   1.083       .  S
C3314      C3315   1.411       .  A
C3315      C3316   1.414       .  A
C3315      C3322   1.518       .  S
C3316      C3317   1.419       .  A
C3316      H3321   1.082       .  S
C3317      C3318   1.413       .  A
C3318      C3319   1.515       .  S
C3319      F3323   1.384       .  S
C3319      F3324   1.383       .  S
C3319      F3325   1.383       .  S
C3322      F3326   1.382       .  S
C3322      F3327   1.384       .  S
C3322      F3328   1.385       .  S
C3329      C3330   1.424       .  A
C3329      C3334   1.417       .  A
C3329      H3336   1.083       .  S
C3330      C3331   1.410       .  A
C3331      C3332   1.408       .  A
C3331      C3338   1.517       .  S
C3332      C3333   1.420       .  A
C3332      H3337   1.082       .  S
C3333      C3334   1.410       .  A
C3334      C3335   1.517       .  S
C3335      F3339   1.385       .  S
C3335      F3340   1.383       .  S
C3335      F3341   1.383       .  S
C3338      F3342   1.383       .  S
C3338      F3343   1.382       .  S
C3338      F3344   1.385       .  S
C3345      C3346   1.401       .  A
C3345      C3350   1.403       .  A
C3345      H3352   1.084       .  S
C3346      C3347   1.411       .  A
C3347      C3348   1.394       .  A
C3347      C3354   1.516       .  S
C3348      C3349   1.400       .  A
C3348      H3353   1.086       .  S
C3349      C3350   1.425       .  A
C3350      C3351   1.522       .  S
C3351      F3355   1.385       .  S
C3351      F3356   1.383       .  S
C3351      F3357   1.383       .  S
C3354      F3358   1.383       .  S
C3354      F3359   1.383       .  S
C3354      F3360   1.383       .  S
C3361      C3362   1.399       .  A
C3361      C3366   1.406       .  A
C3361      H3368   1.071       .  S
C3362      C3363   1.409       .  A
C3363      C3364   1.395       .  A
C3363      C3370   1.509       .  S
C3364      C3365   1.400       .  A
C3364      H3369   1.077       .  S
C3365      C3366   1.425       .  A
C3366      C3367   1.521       .  S
C3367      F3371   1.384       .  S
C3367      F3372   1.383       .  S
C3367      F3373   1.384       .  S
C3370      F3374   1.383       .  S
C3370      F3375   1.384       .  S
C3370      F3376   1.384       .  S
C3377      C3378   1.400       .  A
C3377      C3382   1.405       .  A
C3377      H3384   1.085       .  S
C3378      C3379   1.415       .  A
C3379      C3380   1.396       .  A
C3379      C3386   1.524       .  S
C3380      C3381   1.398       .  A
C3380      H3385   1.087       .  S
C3381      C3382   1.417       .  A
C3382      C3383   1.519       .  S
C3383      F3387   1.383       .  S
C3383      F3388   1.382       .  S
C3383      F3389   1.383       .  S
C3386      F3390   1.383       .  S
C3386      F3391   1.382       .  S
C3386      F3392   1.384       .  S
C3393      C3394   1.396       .  A
C3393      C3398   1.396       .  A
C3393      H3400   1.084       .  S
C3394      C3395   1.412       .  A
C3395      C3396   1.396       .  A
C3395      C3402   1.520       .  S
C3396      C3397   1.402       .  A
C3396      H3401   1.082       .  S
C3397      C3398   1.412       .  A
C3398      C3399   1.511       .  S
C3399      F3403   1.381       .  S
C3399      F3404   1.383       .  S
C3399      F3405   1.379       .  S
C3402      F3406   1.382   1_545  S
C3402      F3407   1.383       .  S
C3402      F3408   1.385       .  S
C3409      C3410   1.423       .  A
C3409      C3414   1.411       .  A
C3409      H3416   1.080       .  S
C3410      C3411   1.413       .  A
C3411      C3412   1.413       .  A
C3411      C3418   1.517       .  S
C3412      C3413   1.418       .  A
C3412      H3417   1.082       .  S
C3413      C3414   1.408       .  A
C3414      C3415   1.516       .  S
C3415      F3419   1.385       .  S
C3415      F3420   1.382       .  S
C3415      F3421   1.383       .  S
C3418      F3422   1.382       .  S
C3418      F3423   1.383       .  S
C3418      F3424   1.385       .  S
C3425      C3426   1.420       .  A
C3425      C3430   1.414       .  A
C3425      H3432   1.084       .  S
C3426      C3427   1.413       .  A
C3427      C3428   1.414       .  A
C3427      C3434   1.515       .  S
C3428      C3429   1.420       .  A
C3428      H3433   1.083       .  S
C3429      C3430   1.414       .  A
C3430      C3431   1.519       .  S
C3431      F3435   1.384       .  S
C3431      F3436   1.383       .  S
C3431      F3437   1.383       .  S
C3434      F3438   1.380       .  S
C3434      F3439   1.383       .  S
C3434      F3440   1.385       .  S
C3441      C3442   1.404       .  A
C3441      C3446   1.404       .  A
C3441      H3448   1.088       .  S
C3442      C3443   1.411       .  A
C3443      C3444   1.397       .  A
C3443      C3450   1.514       .  S
C3444      C3445   1.402       .  A
C3444      H3449   1.091       .  S
C3445      C3446   1.419       .  A
C3446      C3447   1.520       .  S
C3447      F3451   1.385       .  S
C3447      F3452   1.384       .  S
C3447      F3453   1.383       .  S
C3450      F3454   1.383       .  S
C3450      F3455   1.382       .  S
C3450      F3456   1.385       .  S
C3457      C3458   1.403       .  A
C3457      C3462   1.396       .  A
C3457      H3464   1.086       .  S
C3458      C3459   1.424       .  A
C3459      C3460   1.405       .  A
C3459      C3466   1.520       .  S
C3460      C3461   1.401       .  A
C3460      H3465   1.084       .  S
C3461      C3462   1.409       .  A
C3462      C3463   1.514       .  S
C3463      F3467   1.384       .  S
C3463      F3468   1.385       .  S
C3463      F3469   1.382       .  S
C3466      F3470   1.383       .  S
C3466      F3471   1.383       .  S
C3466      F3472   1.385       .  S
C3473      C3474   1.400       .  A
C3473      C3478   1.405       .  A
C3473      H3480   1.082       .  S
C3474      C3475   1.414       .  A
C3475      C3476   1.398       .  A
C3475      C3482   1.520       .  S
C3476      C3477   1.398   1_455  A
C3476      H3481   1.082       .  S
C3477      C3478   1.412   1_655  A
C3478      C3479   1.512   1_455  S
C3479      F3483   1.385       .  S
C3479      F3484   1.383       .  S
C3479      F3485   1.376       .  S
C3482      F3486   1.383       .  S
C3482      F3487   1.383       .  S
C3482      F3488   1.384       .  S
C3489      C3490   1.402       .  A
C3489      C3494   1.397       .  A
C3489      H3496   1.083       .  S
C3490      C3491   1.421       .  A
C3491      C3492   1.406   1_545  A
C3491      C3498   1.521       .  S
C3492      C3493   1.405   1_565  A
C3492      H3497   1.083       .  S
C3493      C3494   1.416       .  A
C3494      C3495   1.518       .  S
C3495      F3499   1.385       .  S
C3495      F3500   1.383       .  S
C3495      F3501   1.384       .  S
C3498      F3502   1.383       .  S
C3498      F3503   1.384       .  S
C3498      F3504   1.385   1_545  S
C3505      C3506   1.420       .  A
C3505      C3510   1.414       .  A
C3505      H3512   1.082       .  S
C3506      C3507   1.416       .  A
C3507      C3508   1.412       .  A
C3507      C3514   1.518       .  S
C3508      C3509   1.416       .  A
C3508      H3513   1.082       .  S
C3509      C3510   1.412       .  A
C3510      C3511   1.515       .  S
C3511      F3515   1.385       .  S
C3511      F3516   1.381       .  S
C3511      F3517   1.382       .  S
C3514      F3518   1.383       .  S
C3514      F3519   1.383       .  S
C3514      F3520   1.385       .  S
C3521      C3522   1.415       .  A
C3521      C3526   1.415       .  A
C3521      H3528   1.083       .  S
C3522      C3523   1.413       .  A
C3523      C3524   1.416       .  A
C3523      C3530   1.517       .  S
C3524      C3525   1.419       .  A
C3524      H3529   1.082       .  S
C3525      C3526   1.413       .  A
C3526      C3527   1.515       .  S
C3527      F3531   1.385       .  S
C3527      F3532   1.383       .  S
C3527      F3533   1.383       .  S
C3530      F3534   1.382       .  S
C3530      F3535   1.383       .  S
C3530      F3536   1.386       .  S
C3537      C3538   1.422       .  A
C3537      C3542   1.414   1_655  A
C3537      H3544   1.079       .  S
C3538      C3539   1.415       .  A
C3539      C3540   1.422   1_655  A
C3539      C3546   1.516       .  S
C3540      C3541   1.419       .  A
C3540      H3545   1.082       .  S
C3541      C3542   1.409       .  A
C3542      C3543   1.517       .  S
C3543      F3547   1.382       .  S
C3543      F3548   1.383       .  S
C3543      F3549   1.383       .  S
C3546      F3550   1.383       .  S
C3546      F3551   1.383       .  S
C3546      F3552   1.384       .  S
C3553      C3554   1.417       .  A
C3553      C3558   1.412   1_565  A
C3553      H3560   1.083       .  S
C3554      C3555   1.413       .  A
C3555      C3556   1.416   1_565  A
C3555      C3562   1.515       .  S
C3556      C3557   1.414       .  A
C3556      H3561   1.084       .  S
C3557      C3558   1.412       .  A
C3558      C3559   1.517       .  S
C3559      F3563   1.386       .  S
C3559      F3564   1.383       .  S
C3559      F3565   1.382       .  S
C3562      F3566   1.382       .  S
C3562      F3567   1.383       .  S
C3562      F3568   1.385       .  S
C3569      C3570   1.420       .  A
C3569      C3574   1.417       .  A
C3569      H3576   1.081       .  S
C3570      C3571   1.415       .  A
C3571      C3572   1.413       .  A
C3571      C3578   1.518       .  S
C3572      C3573   1.418       .  A
C3572      H3577   1.081       .  S
C3573      C3574   1.414       .  A
C3574      C3575   1.515       .  S
C3575      F3579   1.385       .  S
C3575      F3580   1.383       .  S
C3575      F3581   1.380       .  S
C3578      F3582   1.383       .  S
C3578      F3583   1.383       .  S
C3578      F3584   1.384       .  S
C3585      C3586   1.419       .  A
C3585      C3590   1.411       .  A
C3585      H3592   1.080       .  S
C3586      C3587   1.414       .  A
C3587      C3588   1.417       .  A
C3587      C3594   1.517       .  S
C3588      C3589   1.418       .  A
C3588      H3593   1.082       .  S
C3589      C3590   1.409       .  A
C3590      C3591   1.517       .  S
C3591      F3595   1.384       .  S
C3591      F3596   1.382       .  S
C3591      F3597   1.384       .  S
C3594      F3598   1.384       .  S
C3594      F3599   1.382       .  S
C3594      F3600   1.385       .  S
C3601      C3602   1.423       .  A
C3601      C3606   1.415   1_655  A
C3601      H3608   1.079       .  S
C3602      C3603   1.414       .  A
C3603      C3604   1.420   1_655  A
C3603      C3610   1.516       .  S
C3604      C3605   1.421       .  A
C3604      H3609   1.079       .  S
C3605      C3606   1.411       .  A
C3606      C3607   1.517       .  S
C3607      F3611   1.384       .  S
C3607      F3612   1.382       .  S
C3607      F3613   1.383       .  S
C3610      F3614   1.383       .  S
C3610      F3615   1.383       .  S
C3610      F3616   1.384       .  S
C3617      C3618   1.410       .  A
C3617      C3622   1.418       .  A
C3617      H3624   1.084       .  S
C3618      C3619   1.415       .  A
C3619      C3620   1.409       .  A
C3619      C3626   1.517       .  S
C3620      C3621   1.406       .  A
C3620      H3625   1.084       .  S
C3621      C3622   1.416       .  A
C3622      C3623   1.516       .  S
C3623      F3627   1.384       .  S
C3623      F3628   1.384       .  S
C3623      F3629   1.383       .  S
C3626      F3630   1.383       .  S
C3626      F3631   1.383       .  S
C3626      F3632   1.383       .  S
C3633      C3634   1.400       .  A
C3633      C3638   1.400   1_565  A
C3633      H3640   1.085       .  S
C3634      C3635   1.416       .  A
C3635      C3636   1.402   1_565  A
C3635      C3642   1.520       .  S
C3636      C3637   1.403       .  A
C3636      H3641   1.084       .  S
C3637      C3638   1.410       .  A
C3638      C3639   1.515       .  S
C3639      F3643   1.384       .  S
C3639      F3644   1.382       .  S
C3639      F3645   1.382   1_545  S
C3642      F3646   1.383       .  S
C3642      F3647   1.383       .  S
C3642      F3648   1.385   1_565  S
C3649      C3650   1.415       .  A
C3649      C3654   1.419       .  A
C3649      H3656   1.081       .  S
C3650      C3651   1.411       .  A
C3651      C3652   1.413       .  A
C3651      C3658   1.517       .  S
C3652      C3653   1.418       .  A
C3652      H3657   1.079       .  S
C3653      C3654   1.416       .  A
C3654      C3655   1.516       .  S
C3655      F3659   1.385       .  S
C3655      F3660   1.382       .  S
C3655      F3661   1.384       .  S
C3658      F3662   1.383       .  S
C3658      F3663   1.383       .  S
C3658      F3664   1.385       .  S
C3665      C3666   1.416       .  A
C3665      C3670   1.417       .  A
C3665      H3672   1.081       .  S
C3666      C3667   1.413       .  A
C3667      C3668   1.417       .  A
C3667      C3674   1.517       .  S
C3668      C3669   1.419       .  A
C3668      H3673   1.079       .  S
C3669      C3670   1.416       .  A
C3670      C3671   1.517       .  S
C3671      F3675   1.383       .  S
C3671      F3676   1.384       .  S
C3671      F3677   1.384       .  S
C3674      F3678   1.382       .  S
C3674      F3679   1.384       .  S
C3674      F3680   1.385       .  S
C3681      C3682   1.419       .  A
C3681      C3686   1.411   1_565  A
C3681      H3688   1.080       .  S
C3682      C3683   1.415       .  A
C3683      C3684   1.418   1_565  A
C3683      C3690   1.518       .  S
C3684      C3685   1.421       .  A
C3684      H3689   1.081       .  S
C3685      C3686   1.412       .  A
C3686      C3687   1.516       .  S
C3687      F3691   1.384       .  S
C3687      F3692   1.382       .  S
C3687      F3693   1.381       .  S
C3690      F3694   1.384       .  S
C3690      F3695   1.382       .  S
C3690      F3696   1.385       .  S
C3697      C3698   1.406       .  A
C3697      C3702   1.406   1_645  A
C3697      H3704   1.085       .  S
C3698      C3699   1.410   1_545  A
C3699      C3700   1.399       .  A
C3699      C3706   1.513       .  S
C3700      C3701   1.404   1_655  A
C3700      H3705   1.087       .  S
C3701      C3702   1.420       .  A
C3702      C3703   1.519       .  S
C3703      F3707   1.385   1_565  S
C3703      F3708   1.383       .  S
C3703      F3709   1.383       .  S
C3706      F3710   1.382       .  S
C3706      F3711   1.383   1_565  S
C3706      F3712   1.384       .  S
C3713      C3714   1.417       .  A
C3713      C3718   1.420       .  A
C3713      H3720   1.085       .  S
C3714      C3715   1.409       .  A
C3715      C3716   1.409       .  A
C3715      C3722   1.517       .  S
C3716      C3717   1.418       .  A
C3716      H3721   1.082       .  S
C3717      C3718   1.417       .  A
C3718      C3719   1.517       .  S
C3719      F3723   1.385       .  S
C3719      F3724   1.382       .  S
C3719      F3725   1.384       .  S
C3722      F3726   1.385       .  S
C3722      F3727   1.383       .  S
C3722      F3728   1.383       .  S
C3729      C3730   1.405       .  A
C3729      C3734   1.403       .  A
C3729      H3736   1.101       .  S
C3730      C3731   1.413       .  A
C3731      C3732   1.400       .  A
C3731      C3738   1.515       .  S
C3732      C3733   1.405       .  A
C3732      H3737   1.091       .  S
C3733      C3734   1.421       .  A
C3734      C3735   1.521   1_655  S
C3735      F3739   1.383       .  S
C3735      F3740   1.384       .  S
C3735      F3741   1.383       .  S
C3738      F3742   1.384       .  S
C3738      F3743   1.383       .  S
C3738      F3744   1.382       .  S
C3745      C3746   1.397       .  A
C3745      C3750   1.397       .  A
C3745      H3752   1.081       .  S
C3746      C3747   1.415       .  A
C3747      C3748   1.397       .  A
C3747      C3754   1.520       .  S
C3748      C3749   1.401       .  A
C3748      H3753   1.080       .  S
C3749      C3750   1.411       .  A
C3750      C3751   1.508       .  S
C3751      F3755   1.383       .  S
C3751      F3756   1.380       .  S
C3751      F3757   1.379       .  S
C3754      F3758   1.382       .  S
C3754      F3759   1.383       .  S
C3754      F3760   1.386       .  S
C3761      C3762   1.416       .  A
C3761      C3766   1.410       .  A
C3761      H3768   1.080       .  S
C3762      C3763   1.413       .  A
C3763      C3764   1.417       .  A
C3763      C3770   1.516       .  S
C3764      C3765   1.415       .  A
C3764      H3769   1.081       .  S
C3765      C3766   1.409       .  A
C3766      C3767   1.518       .  S
C3767      F3771   1.385       .  S
C3767      F3772   1.384       .  S
C3767      F3773   1.383       .  S
C3770      F3774   1.383       .  S
C3770      F3775   1.384       .  S
C3770      F3776   1.384       .  S
C3777      C3778   1.416       .  A
C3777      C3782   1.421       .  A
C3777      H3784   1.083       .  S
C3778      C3779   1.410       .  A
C3779      C3780   1.412       .  A
C3779      C3786   1.518       .  S
C3780      C3781   1.419       .  A
C3780      H3785   1.082       .  S
C3781      C3782   1.418       .  A
C3782      C3783   1.516       .  S
C3783      F3787   1.385       .  S
C3783      F3788   1.383       .  S
C3783      F3789   1.383       .  S
C3786      F3790   1.383       .  S
C3786      F3791   1.383       .  S
C3786      F3792   1.385       .  S
C3793      C3794   1.416       .  A
C3793      C3798   1.415   1_565  A
C3793      H3800   1.081       .  S
C3794      C3795   1.408       .  A
C3795      C3796   1.412   1_565  A
C3795      C3802   1.516       .  S
C3796      C3797   1.423       .  A
C3796      H3801   1.080       .  S
C3797      C3798   1.414       .  A
C3798      C3799   1.516       .  S
C3799      F3803   1.382       .  S
C3799      F3804   1.383       .  S
C3799      F3805   1.385       .  S
C3802      F3806   1.383       .  S
C3802      F3807   1.383       .  S
C3802      F3808   1.385       .  S
C3809      C3810   1.403       .  A
C3809      C3814   1.408   1_565  A
C3809      H3816   1.082       .  S
C3810      C3811   1.412       .  A
C3811      C3812   1.394       .  A
C3811      C3818   1.506       .  S
C3812      C3813   1.395   1_565  A
C3812      H3817   1.085       .  S
C3813      C3814   1.421       .  A
C3814      C3815   1.521       .  S
C3815      F3819   1.385       .  S
C3815      F3820   1.383       .  S
C3815      F3821   1.384       .  S
C3818      F3822   1.384       .  S
C3818      F3823   1.381       .  S
C3818      F3824   1.385       .  S
C3825      C3826   1.417       .  A
C3825      C3830   1.414       .  A
C3825      H3832   1.080       .  S
C3826      C3827   1.415       .  A
C3827      C3828   1.415       .  A
C3827      C3834   1.516       .  S
C3828      C3829   1.418       .  A
C3828      H3833   1.080       .  S
C3829      C3830   1.416       .  A
C3830      C3831   1.516       .  S
C3831      F3835   1.385       .  S
C3831      F3836   1.381       .  S
C3831      F3837   1.383       .  S
C3834      F3838   1.380       .  S
C3834      F3839   1.383       .  S
C3834      F3840   1.385       .  S
C3841      C3842   1.421       .  A
C3841      C3846   1.414       .  A
C3841      H3848   1.083       .  S
C3842      C3843   1.413       .  A
C3843      C3844   1.414       .  A
C3843      C3850   1.519       .  S
C3844      C3845   1.421       .  A
C3844      H3849   1.083       .  S
C3845      C3846   1.412       .  A
C3846      C3847   1.516       .  S
C3847      F3851   1.385       .  S
C3847      F3852   1.382       .  S
C3847      F3853   1.383       .  S
C3850      F3854   1.383       .  S
C3850      F3855   1.383       .  S
C3850      F3856   1.385       .  S
C3857      C3858   1.406       .  A
C3857      C3862   1.401       .  A
C3857      H3864   1.080       .  S
C3858      C3859   1.422       .  A
C3859      C3860   1.404       .  A
C3859      C3866   1.521       .  S
C3860      C3861   1.404       .  A
C3860      H3865   1.078       .  S
C3861      C3862   1.412       .  A
C3862      C3863   1.516       .  S
C3863      F3867   1.384       .  S
C3863      F3868   1.383       .  S
C3863      F3869   1.382       .  S
C3866      F3870   1.383       .  S
C3866      F3871   1.383       .  S
C3866      F3872   1.385       .  S
C3873      C3874   1.398       .  A
C3873      C3878   1.397       .  A
C3873      H3880   1.086       .  S
C3874      C3875   1.420       .  A
C3875      C3876   1.403       .  A
C3875      C3882   1.521       .  S
C3876      C3877   1.401       .  A
C3876      H3881   1.083       .  S
C3877      C3878   1.413       .  A
C3878      C3879   1.510       .  S
C3879      F3883   1.383       .  S
C3879      F3884   1.380       .  S
C3879      F3885   1.384       .  S
C3882      F3886   1.384       .  S
C3882      F3887   1.383       .  S
C3882      F3888   1.384       .  S
C3889      C3890   1.419       .  A
C3889      C3894   1.413       .  A
C3889      H3896   1.081       .  S
C3890      C3891   1.416       .  A
C3891      C3892   1.418       .  A
C3891      C3898   1.515       .  S
C3892      C3893   1.415       .  A
C3892      H3897   1.082       .  S
C3893      C3894   1.412       .  A
C3894      C3895   1.516       .  S
C3895      F3899   1.385       .  S
C3895      F3900   1.382       .  S
C3895      F3901   1.383       .  S
C3898      F3902   1.383       .  S
C3898      F3903   1.382       .  S
C3898      F3904   1.385       .  S
C3905      C3906   1.419       .  A
C3905      C3910   1.414   1_655  A
C3905      H3912   1.082       .  S
C3906      C3907   1.412       .  A
C3907      C3908   1.418   1_655  A
C3907      C3914   1.516       .  S
C3908      C3909   1.423       .  A
C3908      H3913   1.081       .  S
C3909      C3910   1.413       .  A
C3910      C3911   1.517       .  S
C3911      F3915   1.384       .  S
C3911      F3916   1.382       .  S
C3911      F3917   1.383       .  S
C3914      F3918   1.382       .  S
C3914      F3919   1.384       .  S
C3914      F3920   1.384       .  S
C3921      C3922   1.397       .  A
C3921      C3926   1.390       .  A
C3921      H3928   1.085       .  S
C3922      C3923   1.409       .  A
C3923      C3924   1.402       .  A
C3923      C3930   1.513       .  S
C3924      C3925   1.400       .  A
C3924      H3929   1.083   1_655  S
C3925      C3926   1.410       .  A
C3926      C3927   1.522       .  S
C3927      F3931   1.385       .  S
C3927      F3932   1.382       .  S
C3927      F3933   1.383       .  S
C3930      F3934   1.379       .  S
C3930      F3935   1.383       .  S
C3930      F3936   1.385   1_655  S
C3937      C3938   1.421       .  A
C3937      C3942   1.412       .  A
C3937      H3944   1.083       .  S
C3938      C3939   1.414       .  A
C3939      C3940   1.416       .  A
C3939      C3946   1.516       .  S
C3940      C3941   1.416       .  A
C3940      H3945   1.084       .  S
C3941      C3942   1.409       .  A
C3942      C3943   1.518       .  S
C3943      F3947   1.383       .  S
C3943      F3948   1.383       .  S
C3943      F3949   1.383       .  S
C3946      F3950   1.383       .  S
C3946      F3951   1.383       .  S
C3946      F3952   1.385       .  S
C3953      C3954   1.418       .  A
C3953      C3958   1.411   1_565  A
C3953      H3960   1.082       .  S
C3954      C3955   1.418       .  A
C3955      C3956   1.416   1_565  A
C3955      C3962   1.517       .  S
C3956      C3957   1.414       .  A
C3956      H3961   1.084       .  S
C3957      C3958   1.410       .  A
C3958      C3959   1.515       .  S
C3959      F3963   1.384       .  S
C3959      F3964   1.384       .  S
C3959      F3965   1.382       .  S
C3962      F3966   1.383       .  S
C3962      F3967   1.383       .  S
C3962      F3968   1.385       .  S
C3969      C3970   1.416       .  A
C3969      C3974   1.418   1_655  A
C3969      H3976   1.083       .  S
C3970      C3971   1.414       .  A
C3971      C3972   1.416   1_655  A
C3971      C3978   1.516       .  S
C3972      C3973   1.421       .  A
C3972      H3977   1.083       .  S
C3973      C3974   1.417       .  A
C3974      C3975   1.516       .  S
C3975      F3979   1.384       .  S
C3975      F3980   1.383       .  S
C3975      F3981   1.383       .  S
C3978      F3982   1.383       .  S
C3978      F3983   1.382       .  S
C3978      F3984   1.385       .  S
C3985      C3986   1.406       .  A
C3985      C3990   1.408   1_565  A
C3985      H3992   1.082       .  S
C3986      C3987   1.424       .  A
C3987      C3988   1.402       .  A
C3987      C3994   1.521       .  S
C3988      C3989   1.402       .  A
C3988      H3993   1.083       .  S
C3989      C3990   1.423   1_565  A
C3990      C3991   1.521       .  S
C3991      F3995   1.385       .  S
C3991      F3996   1.383       .  S
C3991      F3997   1.384       .  S
C3994      F3998   1.382       .  S
C3994      F3999   1.382       .  S
C3994      F4000   1.386       .  S
C4001      C4002   1.403       .  A
C4001      C4006   1.403   1_455  A
C4001      H4008   1.082       .  S
C4002      C4003   1.415   1_455  A
C4003      C4004   1.398       .  A
C4003      C4010   1.517       .  S
C4004      C4005   1.404       .  A
C4004      H4009   1.086       .  S
C4005      C4006   1.422       .  A
C4006      C4007   1.522       .  S
C4007      F4011   1.385   1_655  S
C4007      F4012   1.384       .  S
C4007      F4013   1.383       .  S
C4010      F4014   1.383       .  S
C4010      F4015   1.382   1_655  S
C4010      F4016   1.385       .  S
C4017      C4018   1.402       .  A
C4017      C4022   1.395       .  A
C4017      H4024   1.084       .  S
C4018      C4019   1.421       .  A
C4019      C4020   1.406       .  A
C4019      C4026   1.519       .  S
C4020      C4021   1.404       .  A
C4020      H4025   1.082       .  S
C4021      C4022   1.412       .  A
C4022      C4023   1.513       .  S
C4023      F4027   1.383       .  S
C4023      F4028   1.384       .  S
C4023      F4029   1.382       .  S
C4026      F4030   1.384       .  S
C4026      F4031   1.382       .  S
C4026      F4032   1.385       .  S
C4033      C4034   1.419       .  A
C4033      C4038   1.414       .  A
C4033      H4040   1.082       .  S
C4034      C4035   1.412       .  A
C4035      C4036   1.419       .  A
C4035      C4042   1.514       .  S
C4036      C4037   1.422       .  A
C4036      H4041   1.081       .  S
C4037      C4038   1.415       .  A
C4038      C4039   1.519       .  S
C4039      F4043   1.383       .  S
C4039      F4044   1.383       .  S
C4039      F4045   1.384       .  S
C4042      F4046   1.381       .  S
C4042      F4047   1.383       .  S
C4042      F4048   1.384       .  S
C4049      C4050   1.394       .  A
C4049      C4054   1.394       .  A
C4049      H4056   1.088       .  S
C4050      C4051   1.415       .  A
C4051      C4052   1.401       .  A
C4051      C4058   1.521       .  S
C4052      C4053   1.403       .  A
C4052      H4057   1.085       .  S
C4053      C4054   1.411       .  A
C4054      C4055   1.507       .  S
C4055      F4059   1.384       .  S
C4055      F4060   1.376       .  S
C4055      F4061   1.382       .  S
C4058      F4062   1.384       .  S
C4058      F4063   1.383       .  S
C4058      F4064   1.385       .  S
C4065      C4066   1.416       .  A
C4065      C4070   1.415       .  A
C4065      H4072   1.086       .  S
C4066      C4067   1.415       .  A
C4067      C4068   1.419       .  A
C4067      C4074   1.517       .  S
C4068      C4069   1.417       .  A
C4068      H4073   1.085       .  S
C4069      C4070   1.412       .  A
C4070      C4071   1.514       .  S
C4071      F4075   1.384       .  S
C4071      F4076   1.381       .  S
C4071      F4077   1.384       .  S
C4074      F4078   1.383       .  S
C4074      F4079   1.384       .  S
C4074      F4080   1.384       .  S
C4081      C4082   1.418       .  A
C4081      C4086   1.423       .  A
C4081      H4088   1.081       .  S
C4082      C4083   1.415       .  A
C4083      C4084   1.419       .  A
C4083      C4090   1.514       .  S
C4084      C4085   1.421       .  A
C4084      H4089   1.080       .  S
C4085      C4086   1.420       .  A
C4086      C4087   1.516       .  S
C4087      F4091   1.385       .  S
C4087      F4092   1.382       .  S
C4087      F4093   1.382       .  S
C4090      F4094   1.385       .  S
C4090      F4095   1.381       .  S
C4090      F4096   1.382       .  S
C4097      C4098   1.412       .  A
C4097      C4102   1.415       .  A
C4097      H4104   1.082       .  S
C4098      C4099   1.409       .  A
C4099      C4100   1.410       .  A
C4099      C4106   1.515       .  S
C4100      C4101   1.414       .  A
C4100      H4105   1.079       .  S
C4101      C4102   1.415       .  A
C4102      C4103   1.516       .  S
C4103      F4107   1.384       .  S
C4103      F4108   1.384       .  S
C4103      F4109   1.383       .  S
C4106      F4110   1.383       .  S
C4106      F4111   1.384       .  S
C4106      F4112   1.381       .  S
C4113      C4114   1.417       .  A
C4113      C4118   1.417   1_655  A
C4113      H4120   1.085       .  S
C4114      C4115   1.410       .  A
C4115      C4116   1.413   1_655  A
C4115      C4122   1.517       .  S
C4116      C4117   1.420       .  A
C4116      H4121   1.084       .  S
C4117      C4118   1.414       .  A
C4118      C4119   1.516       .  S
C4119      F4123   1.384       .  S
C4119      F4124   1.383       .  S
C4119      F4125   1.384       .  S
C4122      F4126   1.383       .  S
C4122      F4127   1.383       .  S
C4122      F4128   1.385       .  S
C4129      C4130   1.422       .  A
C4129      C4134   1.417   1_556  A
C4129      H4136   1.075       .  S
C4130      C4131   1.414       .  A
C4131      C4132   1.416   1_556  A
C4131      C4138   1.518       .  S
C4132      C4133   1.421       .  A
C4132      H4137   1.077       .  S
C4133      C4134   1.412       .  A
C4134      C4135   1.516       .  S
C4135      F4139   1.384       .  S
C4135      F4140   1.383       .  S
C4135      F4141   1.383       .  S
C4138      F4142   1.384       .  S
C4138      F4143   1.383       .  S
C4138      F4144   1.383       .  S
C4145      C4146   1.419       .  A
C4145      C4150   1.409       .  A
C4145      H4152   1.083       .  S
C4146      C4147   1.417       .  A
C4147      C4148   1.421       .  A
C4147      C4154   1.516       .  S
C4148      C4149   1.417       .  A
C4148      H4153   1.086       .  S
C4149      C4150   1.407       .  A
C4150      C4151   1.517       .  S
C4151      F4155   1.382       .  S
C4151      F4156   1.383       .  S
C4151      F4157   1.383       .  S
C4154      F4158   1.385       .  S
C4154      F4159   1.383       .  S
C4154      F4160   1.383       .  S
C4161      C4162   1.422       .  A
C4161      C4166   1.413       .  A
C4161      H4168   1.079       .  S
C4162      C4163   1.415       .  A
C4163      C4164   1.419       .  A
C4163      C4170   1.516       .  S
C4164      C4165   1.417       .  A
C4164      H4169   1.081       .  S
C4165      C4166   1.409       .  A
C4166      C4167   1.518       .  S
C4167      F4171   1.384       .  S
C4167      F4172   1.383       .  S
C4167      F4173   1.384       .  S
C4170      F4174   1.383       .  S
C4170      F4175   1.383       .  S
C4170      F4176   1.385       .  S
C4177      C4178   1.420       .  A
C4177      C4182   1.417       .  A
C4177      H4184   1.086       .  S
C4178      C4179   1.408       .  A
C4179      C4180   1.411       .  A
C4179      C4186   1.517       .  S
C4180      C4181   1.422       .  A
C4180      H4185   1.083       .  S
C4181      C4182   1.415       .  A
C4182      C4183   1.518       .  S
C4183      F4187   1.385       .  S
C4183      F4188   1.383       .  S
C4183      F4189   1.383       .  S
C4186      F4190   1.384       .  S
C4186      F4191   1.383       .  S
C4186      F4192   1.384       .  S
C4193      C4194   1.401       .  A
C4193      C4198   1.399   1_556  A
C4193      H4200   1.083       .  S
C4194      C4195   1.414       .  A
C4195      C4196   1.404       .  A
C4195      C4202   1.518       .  S
C4196      C4197   1.404   1_556  A
C4196      H4201   1.082       .  S
C4197      C4198   1.419       .  A
C4198      C4199   1.521       .  S
C4199      F4203   1.385       .  S
C4199      F4204   1.382       .  S
C4199      F4205   1.384       .  S
C4202      F4206   1.383       .  S
C4202      F4207   1.382       .  S
C4202      F4208   1.384       .  S
C4209      C4210   1.422       .  A
C4209      C4214   1.415   1_655  A
C4209      H4216   1.082       .  S
C4210      C4211   1.415       .  A
C4211      C4212   1.415   1_655  A
C4211      C4218   1.515       .  S
C4212      C4213   1.415       .  A
C4212      H4217   1.081       .  S
C4213      C4214   1.412       .  A
C4214      C4215   1.517       .  S
C4215      F4219   1.385       .  S
C4215      F4220   1.382       .  S
C4215      F4221   1.384       .  S
C4218      F4222   1.382       .  S
C4218      F4223   1.382       .  S
C4218      F4224   1.385       .  S
C4225      C4226   1.413       .  A
C4225      C4230   1.413       .  A
C4225      H4232   1.083       .  S
C4226      C4227   1.410       .  A
C4227      C4228   1.412       .  A
C4227      C4234   1.518       .  S
C4228      C4229   1.420       .  A
C4228      H4233   1.081       .  S
C4229      C4230   1.417       .  A
C4230      C4231   1.518       .  S
C4231      F4235   1.385       .  S
C4231      F4236   1.383       .  S
C4231      F4237   1.383       .  S
C4234      F4238   1.383       .  S
C4234      F4239   1.383       .  S
C4234      F4240   1.384       .  S
C4241      C4242   1.419       .  A
C4241      C4246   1.418       .  A
C4241      H4248   1.085       .  S
C4242      C4243   1.411       .  A
C4243      C4244   1.410       .  A
C4243      C4250   1.518       .  S
C4244      C4245   1.419       .  A
C4244      H4249   1.083       .  S
C4245      C4246   1.416       .  A
C4246      C4247   1.518       .  S
C4247      F4251   1.385       .  S
C4247      F4252   1.383       .  S
C4247      F4253   1.382       .  S
C4250      F4254   1.382       .  S
C4250      F4255   1.383       .  S
C4250      F4256   1.385       .  S
C4257      C4258   1.421       .  A
C4257      C4262   1.417       .  A
C4257      H4264   1.080       .  S
C4258      C4259   1.415       .  A
C4259      C4260   1.418       .  A
C4259      C4266   1.517       .  S
C4260      C4261   1.421       .  A
C4260      H4265   1.080       .  S
C4261      C4262   1.413       .  A
C4262      C4263   1.518       .  S
C4263      F4267   1.384       .  S
C4263      F4268   1.383       .  S
C4263      F4269   1.383       .  S
C4266      F4270   1.383       .  S
C4266      F4271   1.383       .  S
C4266      F4272   1.384       .  S
C4273      C4274   1.401       .  A
C4273      C4278   1.401   1_455  A
C4273      H4280   1.099       .  S
C4274      C4275   1.412   1_455  A
C4275      C4276   1.394       .  A
C4275      C4282   1.515       .  S
C4276      C4277   1.402       .  A
C4276      H4281   1.105       .  S
C4277      C4278   1.421       .  A
C4278      C4279   1.519       .  S
C4279      F4283   1.385   1_655  S
C4279      F4284   1.383       .  S
C4279      F4285   1.383       .  S
C4282      F4286   1.384       .  S
C4282      F4287   1.383   1_655  S
C4282      F4288   1.383       .  S
C4289      C4290   1.420       .  A
C4289      C4294   1.416   1_554  A
C4289      H4296   1.083       .  S
C4290      C4291   1.413       .  A
C4291      C4292   1.415   1_554  A
C4291      C4298   1.515       .  S
C4292      C4293   1.421       .  A
C4292      H4297   1.081       .  S
C4293      C4294   1.414       .  A
C4294      C4295   1.516       .  S
C4295      F4299   1.385       .  S
C4295      F4300   1.382       .  S
C4295      F4301   1.383       .  S
C4298      F4302   1.381       .  S
C4298      F4303   1.383       .  S
C4298      F4304   1.385       .  S
C4305      C4306   1.399       .  A
C4305      C4310   1.403   1_654  A
C4305      H4312   1.085       .  S
C4306      C4307   1.414   1_554  A
C4307      C4308   1.398       .  A
C4307      C4314   1.514       .  S
C4308      C4309   1.401   1_655  A
C4308      H4313   1.090       .  S
C4309      C4310   1.424       .  A
C4310      C4311   1.521       .  S
C4311      F4315   1.384   1_556  S
C4311      F4316   1.384       .  S
C4311      F4317   1.383       .  S
C4314      F4318   1.384       .  S
C4314      F4319   1.384   1_556  S
C4314      F4320   1.383       .  S
C4321      C4322   1.411       .  A
C4321      C4326   1.415       .  A
C4321      H4328   1.083       .  S
C4322      C4323   1.411       .  A
C4323      C4324   1.410       .  A
C4323      C4330   1.517       .  S
C4324      C4325   1.412       .  A
C4324      H4329   1.083       .  S
C4325      C4326   1.414       .  A
C4326      C4327   1.515       .  S
C4327      F4331   1.385       .  S
C4327      F4332   1.383       .  S
C4327      F4333   1.383       .  S
C4330      F4334   1.384       .  S
C4330      F4335   1.382       .  S
C4330      F4336   1.385       .  S
C4337      C4338   1.396       .  A
C4337      C4342   1.391       .  A
C4337      H4344   1.085       .  S
C4338      C4339   1.411       .  A
C4339      C4340   1.405       .  A
C4339      C4346   1.515       .  S
C4340      C4341   1.401       .  A
C4340      H4345   1.084       .  S
C4341      C4342   1.414       .  A
C4342      C4343   1.523       .  S
C4343      F4347   1.385       .  S
C4343      F4348   1.383       .  S
C4343      F4349   1.382       .  S
C4346      F4350   1.385       .  S
C4346      F4351   1.383       .  S
C4346      F4352   1.382       .  S
C4353      C4354   1.422       .  A
C4353      C4358   1.412       .  A
C4353      H4360   1.081       .  S
C4354      C4355   1.415       .  A
C4355      C4356   1.413       .  A
C4355      C4362   1.518       .  S
C4356      C4357   1.417       .  A
C4356      H4361   1.081       .  S
C4357      C4358   1.410       .  A
C4358      C4359   1.518       .  S
C4359      F4363   1.384       .  S
C4359      F4364   1.383       .  S
C4359      F4365   1.383       .  S
C4362      F4366   1.383       .  S
C4362      F4367   1.383       .  S
C4362      F4368   1.385       .  S
C4369      C4370   1.417   1_554  A
C4369      C4374   1.421       .  A
C4369      H4376   1.083   1_554  S
C4370      C4371   1.410       .  A
C4371      C4372   1.411   1_556  A
C4371      C4378   1.517       .  S
C4372      C4373   1.420       .  A
C4372      H4377   1.081       .  S
C4373      C4374   1.417       .  A
C4374      C4375   1.516       .  S
C4375      F4379   1.385       .  S
C4375      F4380   1.383       .  S
C4375      F4381   1.384       .  S
C4378      F4382   1.384       .  S
C4378      F4383   1.382       .  S
C4378      F4384   1.383       .  S
C4385      C4386   1.401       .  A
C4385      C4390   1.402   1_556  A
C4385      H4392   1.086       .  S
C4386      C4387   1.413       .  A
C4387      C4388   1.390       .  A
C4387      C4394   1.524       .  S
C4388      C4389   1.396   1_556  A
C4388      H4393   1.086       .  S
C4389      C4390   1.412       .  A
C4390      C4391   1.516       .  S
C4391      F4395   1.383       .  S
C4391      F4396   1.383       .  S
C4391      F4397   1.381       .  S
C4394      F4398   1.382       .  S
C4394      F4399   1.382       .  S
C4394      F4400   1.385       .  S
C4401      C4402   1.420       .  A
C4401      C4406   1.417       .  A
C4401      H4408   1.077       .  S
C4402      C4403   1.416       .  A
C4403      C4404   1.420       .  A
C4403      C4410   1.515       .  S
C4404      C4405   1.416       .  A
C4404      H4409   1.080       .  S
C4405      C4406   1.411       .  A
C4406      C4407   1.516       .  S
C4407      F4411   1.382       .  S
C4407      F4412   1.382       .  S
C4407      F4413   1.383       .  S
C4410      F4414   1.383       .  S
C4410      F4415   1.383       .  S
C4410      F4416   1.385       .  S
C4417      C4418   1.416       .  A
C4417      C4422   1.417   1_655  A
C4417      H4424   1.087       .  S
C4418      C4419   1.412       .  A
C4419      C4420   1.411   1_655  A
C4419      C4426   1.516       .  S
C4420      C4421   1.418       .  A
C4420      H4425   1.086       .  S
C4421      C4422   1.413       .  A
C4422      C4423   1.514       .  S
C4423      F4427   1.384       .  S
C4423      F4428   1.383       .  S
C4423      F4429   1.383       .  S
C4426      F4430   1.382       .  S
C4426      F4431   1.382       .  S
C4426      F4432   1.385       .  S
C4433      C4434   1.419       .  A
C4433      C4438   1.415   1_556  A
C4433      H4440   1.084       .  S
C4434      C4435   1.410       .  A
C4435      C4436   1.412   1_556  A
C4435      C4442   1.514       .  S
C4436      C4437   1.421       .  A
C4436      H4441   1.083       .  S
C4437      C4438   1.415       .  A
C4438      C4439   1.518       .  S
C4439      F4443   1.385       .  S
C4439      F4444   1.382       .  S
C4439      F4445   1.383       .  S
C4442      F4446   1.383       .  S
C4442      F4447   1.381       .  S
C4442      F4448   1.384       .  S
C4449      C4450   1.404       .  A
C4449      C4454   1.399   1_556  A
C4449      H4456   1.085       .  S
C4450      C4451   1.424   1_556  A
C4451      C4452   1.407       .  A
C4451      C4458   1.519       .  S
C4452      C4453   1.401       .  A
C4452      H4457   1.083       .  S
C4453      C4454   1.411       .  A
C4454      C4455   1.514       .  S
C4455      F4459   1.384   1_554  S
C4455      F4460   1.382   1_554  S
C4455      F4461   1.385       .  S
C4458      F4462   1.382   1_554  S
C4458      F4463   1.384       .  S
C4458      F4464   1.383       .  S
C4465      C4466   1.401       .  A
C4465      C4470   1.401       .  A
C4465      H4472   1.081       .  S
C4466      C4467   1.422       .  A
C4467      C4468   1.403       .  A
C4467      C4474   1.522       .  S
C4468      C4469   1.400       .  A
C4468      H4473   1.081   1_655  S
C4469      C4470   1.414       .  A
C4470      C4471   1.516       .  S
C4471      F4475   1.384       .  S
C4471      F4476   1.384   1_655  S
C4471      F4477   1.382       .  S
C4474      F4478   1.383       .  S
C4474      F4479   1.384       .  S
C4474      F4480   1.384       .  S
C4481      C4482   1.401       .  A
C4481      C4486   1.399       .  A
C4481      H4488   1.084       .  S
C4482      C4483   1.409       .  A
C4483      C4484   1.397       .  A
C4483      C4490   1.515       .  S
C4484      C4485   1.402       .  A
C4484      H4489   1.085       .  S
C4485      C4486   1.419       .  A
C4486      C4487   1.523       .  S
C4487      F4491   1.384       .  S
C4487      F4492   1.384       .  S
C4487      F4493   1.383       .  S
C4490      F4494   1.382       .  S
C4490      F4495   1.385       .  S
C4490      F4496   1.384       .  S
C4497      C4498   1.414       .  A
C4497      C4502   1.421       .  A
C4497      H4504   1.080       .  S
C4498      C4499   1.412       .  A
C4499      C4500   1.414       .  A
C4499      C4506   1.514       .  S
C4500      C4501   1.414       .  A
C4500      H4505   1.081       .  S
C4501      C4502   1.418       .  A
C4502      C4503   1.516       .  S
C4503      F4507   1.384       .  S
C4503      F4508   1.382       .  S
C4503      F4509   1.384       .  S
C4506      F4510   1.384       .  S
C4506      F4511   1.381       .  S
C4506      F4512   1.385       .  S
C4513      C4514   1.414       .  A
C4513      C4518   1.415       .  A
C4513      H4520   1.082       .  S
C4514      C4515   1.411       .  A
C4515      C4516   1.412       .  A
C4515      C4522   1.515       .  S
C4516      C4517   1.417       .  A
C4516      H4521   1.082       .  S
C4517      C4518   1.413       .  A
C4518      C4519   1.515       .  S
C4519      F4523   1.384       .  S
C4519      F4524   1.383       .  S
C4519      F4525   1.383       .  S
C4522      F4526   1.382       .  S
C4522      F4527   1.383       .  S
C4522      F4528   1.385       .  S
C4529      C4530   1.421       .  A
C4529      C4534   1.419       .  A
C4529      H4536   1.082       .  S
C4530      C4531   1.412       .  A
C4531      C4532   1.414       .  A
C4531      C4538   1.514       .  S
C4532      C4533   1.421       .  A
C4532      H4537   1.081       .  S
C4533      C4534   1.416       .  A
C4534      C4535   1.518       .  S
C4535      F4539   1.385       .  S
C4535      F4540   1.383       .  S
C4535      F4541   1.383       .  S
C4538      F4542   1.381       .  S
C4538      F4543   1.383       .  S
C4538      F4544   1.385       .  S
C4545      C4546   1.402       .  A
C4545      C4550   1.396       .  A
C4545      H4552   1.084       .  S
C4546      C4547   1.425       .  A
C4547      C4548   1.405       .  A
C4547      C4554   1.519       .  S
C4548      C4549   1.401       .  A
C4548      H4553   1.081       .  S
C4549      C4550   1.415       .  A
C4550      C4551   1.517       .  S
C4551      F4555   1.383       .  S
C4551      F4556   1.382       .  S
C4551      F4557   1.384       .  S
C4554      F4558   1.383       .  S
C4554      F4559   1.382       .  S
C4554      F4560   1.385       .  S
C4561      C4562   1.422       .  A
C4561      C4566   1.416       .  A
C4561      H4568   1.079       .  S
C4562      C4563   1.411       .  A
C4563      C4564   1.415       .  A
C4563      C4570   1.514       .  S
C4564      C4565   1.421       .  A
C4564      H4569   1.079       .  S
C4565      C4566   1.414       .  A
C4566      C4567   1.519       .  S
C4567      F4571   1.384       .  S
C4567      F4572   1.383       .  S
C4567      F4573   1.384       .  S
C4570      F4574   1.383       .  S
C4570      F4575   1.380       .  S
C4570      F4576   1.384       .  S
C4577      C4578   1.399       .  A
C4577      C4582   1.404       .  A
C4577      H4584   1.079       .  S
C4578      C4579   1.412       .  A
C4579      C4580   1.396       .  A
C4579      C4586   1.517       .  S
C4580      C4581   1.403       .  A
C4580      H4585   1.082       .  S
C4581      C4582   1.425       .  A
C4582      C4583   1.520       .  S
C4583      F4587   1.385       .  S
C4583      F4588   1.383       .  S
C4583      F4589   1.383       .  S
C4586      F4590   1.384       .  S
C4586      F4591   1.383       .  S
C4586      F4592   1.383       .  S
C4593      C4594   1.416       .  A
C4593      C4598   1.413   1_655  A
C4593      H4600   1.083       .  S
C4594      C4595   1.413       .  A
C4595      C4596   1.416   1_655  A
C4595      C4602   1.515       .  S
C4596      C4597   1.413       .  A
C4596      H4601   1.084       .  S
C4597      C4598   1.411       .  A
C4598      C4599   1.518       .  S
C4599      F4603   1.385       .  S
C4599      F4604   1.382       .  S
C4599      F4605   1.384       .  S
C4602      F4606   1.383       .  S
C4602      F4607   1.383       .  S
C4602      F4608   1.385       .  S
C4609      C4610   1.402       .  A
C4609      C4614   1.406   1_655  A
C4609      H4616   1.083       .  S
C4610      C4611   1.410       .  A
C4611      C4612   1.401       .  A
C4611      C4618   1.516       .  S
C4612      C4613   1.407   1_655  A
C4612      H4617   1.084       .  S
C4613      C4614   1.423       .  A
C4614      C4615   1.518       .  S
C4615      F4619   1.385       .  S
C4615      F4620   1.384       .  S
C4615      F4621   1.382       .  S
C4618      F4622   1.385       .  S
C4618      F4623   1.382       .  S
C4618      F4624   1.383       .  S
C4625      C4626   1.400       .  A
C4625      C4630   1.400       .  A
C4625      H4632   1.083       .  S
C4626      C4627   1.422       .  A
C4627      C4628   1.399       .  A
C4627      C4634   1.523       .  S
C4628      C4629   1.398       .  A
C4628      H4633   1.082       .  S
C4629      C4630   1.412       .  A
C4630      C4631   1.515       .  S
C4631      F4635   1.384       .  S
C4631      F4636   1.384       .  S
C4631      F4637   1.380       .  S
C4634      F4638   1.383       .  S
C4634      F4639   1.384       .  S
C4634      F4640   1.384       .  S
C4641      C4642   1.414       .  A
C4641      C4646   1.416       .  A
C4641      H4648   1.084       .  S
C4642      C4643   1.411       .  A
C4643      C4644   1.414       .  A
C4643      C4650   1.519       .  S
C4644      C4645   1.422       .  A
C4644      H4649   1.082       .  S
C4645      C4646   1.416       .  A
C4646      C4647   1.515       .  S
C4647      F4651   1.385       .  S
C4647      F4652   1.382       .  S
C4647      F4653   1.383       .  S
C4650      F4654   1.383       .  S
C4650      F4655   1.383       .  S
C4650      F4656   1.385       .  S
C4657      C4658   1.420       .  A
C4657      C4662   1.412       .  A
C4657      H4664   1.081       .  S
C4658      C4659   1.415       .  A
C4659      C4660   1.415       .  A
C4659      C4666   1.516       .  S
C4660      C4661   1.417       .  A
C4660      H4665   1.080       .  S
C4661      C4662   1.411       .  A
C4662      C4663   1.514       .  S
C4663      F4667   1.382       .  S
C4663      F4668   1.382       .  S
C4663      F4669   1.380       .  S
C4666      F4670   1.383       .  S
C4666      F4671   1.383       .  S
C4666      F4672   1.385       .  S
C4673      C4674   1.422       .  A
C4673      C4678   1.410       .  A
C4673      H4680   1.084       .  S
C4674      C4675   1.408       .  A
C4675      C4676   1.410       .  A
C4675      C4682   1.518       .  S
C4676      C4677   1.423       .  A
C4676      H4681   1.083       .  S
C4677      C4678   1.408       .  A
C4678      C4679   1.517       .  S
C4679      F4683   1.385       .  S
C4679      F4684   1.383       .  S
C4679      F4685   1.383       .  S
C4682      F4686   1.383       .  S
C4682      F4687   1.382       .  S
C4682      F4688   1.384       .  S
C4689      C4690   1.421       .  A
C4689      C4694   1.409   1_565  A
C4689      H4696   1.082       .  S
C4690      C4691   1.415       .  A
C4691      C4692   1.417   1_565  A
C4691      C4698   1.517       .  S
C4692      C4693   1.417       .  A
C4692      H4697   1.082       .  S
C4693      C4694   1.407       .  A
C4694      C4695   1.518       .  S
C4695      F4699   1.384       .  S
C4695      F4700   1.383       .  S
C4695      F4701   1.383       .  S
C4698      F4702   1.383       .  S
C4698      F4703   1.383       .  S
C4698      F4704   1.385       .  S
C4705      C4706   1.423   1_554  A
C4705      C4710   1.414       .  A
C4705      H4712   1.079   1_554  S
C4706      C4707   1.414       .  A
C4707      C4708   1.416   1_556  A
C4707      C4714   1.516       .  S
C4708      C4709   1.419       .  A
C4708      H4713   1.082       .  S
C4709      C4710   1.410       .  A
C4710      C4711   1.518       .  S
C4711      F4715   1.383       .  S
C4711      F4716   1.382       .  S
C4711      F4717   1.383       .  S
C4714      F4718   1.383       .  S
C4714      F4719   1.383       .  S
C4714      F4720   1.385       .  S
C4721      C4722   1.424       .  A
C4721      C4726   1.412       .  A
C4721      H4728   1.080       .  S
C4722      C4723   1.414       .  A
C4723      C4724   1.416       .  A
C4723      C4730   1.515       .  S
C4724      C4725   1.417       .  A
C4724      H4729   1.082       .  S
C4725      C4726   1.408       .  A
C4726      C4727   1.520       .  S
C4727      F4731   1.383       .  S
C4727      F4732   1.384       .  S
C4727      F4733   1.383       .  S
C4730      F4734   1.383       .  S
C4730      F4735   1.382       .  S
C4730      F4736   1.385       .  S
C4737      C4738   1.421       .  A
C4737      C4742   1.415       .  A
C4737      H4744   1.079       .  S
C4738      C4739   1.410       .  A
C4739      C4740   1.413       .  A
C4739      C4746   1.518       .  S
C4740      C4741   1.423       .  A
C4740      H4745   1.079       .  S
C4741      C4742   1.413       .  A
C4742      C4743   1.517       .  S
C4743      F4747   1.384       .  S
C4743      F4748   1.382       .  S
C4743      F4749   1.383       .  S
C4746      F4750   1.382       .  S
C4746      F4751   1.384       .  S
C4746      F4752   1.384       .  S
C4753      C4754   1.418       .  A
C4753      C4758   1.414       .  A
C4753      H4760   1.082       .  S
C4754      C4755   1.418       .  A
C4755      C4756   1.423       .  A
C4755      C4762   1.517       .  S
C4756      C4757   1.419       .  A
C4756      H4761   1.083       .  S
C4757      C4758   1.410       .  A
C4758      C4759   1.516       .  S
C4759      F4763   1.384       .  S
C4759      F4764   1.383       .  S
C4759      F4765   1.384       .  S
C4762      F4766   1.383       .  S
C4762      F4767   1.383       .  S
C4762      F4768   1.384       .  S
C4769      C4770   1.402       .  A
C4769      C4774   1.400   1_554  A
C4769      H4776   1.084       .  S
C4770      C4771   1.418   1_554  A
C4771      C4772   1.397       .  A
C4771      C4778   1.522       .  S
C4772      C4773   1.402       .  A
C4772      H4777   1.083       .  S
C4773      C4774   1.420       .  A
C4774      C4775   1.521       .  S
C4775      F4779   1.385   1_556  S
C4775      F4780   1.382       .  S
C4775      F4781   1.383       .  S
C4778      F4782   1.383   1_556  S
C4778      F4783   1.383       .  S
C4778      F4784   1.384       .  S
C4785      C4786   1.417       .  A
C4785      C4790   1.417   1_545  A
C4785      H4792   1.083       .  S
C4786      C4787   1.406       .  A
C4787      C4788   1.408   1_545  A
C4787      C4794   1.516       .  S
C4788      C4789   1.421       .  A
C4788      H4793   1.080       .  S
C4789      C4790   1.416       .  A
C4790      C4791   1.517       .  S
C4791      F4795   1.385       .  S
C4791      F4796   1.382       .  S
C4791      F4797   1.383       .  S
C4794      F4798   1.382       .  S
C4794      F4799   1.383       .  S
C4794      F4800   1.384       .  S
C4801      C4802   1.419       .  A
C4801      C4806   1.418       .  A
C4801      H4808   1.082       .  S
C4802      C4803   1.414       .  A
C4803      C4804   1.417       .  A
C4803      C4810   1.516       .  S
C4804      C4805   1.422       .  A
C4804      H4809   1.081       .  S
C4805      C4806   1.415       .  A
C4806      C4807   1.515       .  S
C4807      F4811   1.385       .  S
C4807      F4812   1.382       .  S
C4807      F4813   1.383       .  S
C4810      F4814   1.380       .  S
C4810      F4815   1.383       .  S
C4810      F4816   1.385       .  S
C4817      C4818   1.418       .  A
C4817      C4822   1.409       .  A
C4817      H4824   1.078       .  S
C4818      C4819   1.414       .  A
C4819      C4820   1.413       .  A
C4819      C4826   1.517       .  S
C4820      C4821   1.414       .  A
C4820      H4825   1.081       .  S
C4821      C4822   1.409       .  A
C4822      C4823   1.516       .  S
C4823      F4827   1.385       .  S
C4823      F4828   1.383       .  S
C4823      F4829   1.383       .  S
C4826      F4830   1.383       .  S
C4826      F4831   1.383       .  S
C4826      F4832   1.385       .  S
C4833      C4834   1.417       .  A
C4833      C4838   1.423       .  A
C4833      H4840   1.084       .  S
C4834      C4835   1.412       .  A
C4835      C4836   1.413       .  A
C4835      C4842   1.518       .  S
C4836      C4837   1.417       .  A
C4836      H4841   1.085       .  S
C4837      C4838   1.415       .  A
C4838      C4839   1.515       .  S
C4839      F4843   1.384       .  S
C4839      F4844   1.382       .  S
C4839      F4845   1.384       .  S
C4842      F4846   1.383       .  S
C4842      F4847   1.383       .  S
C4842      F4848   1.385       .  S
C4849      C4850   1.403       .  A
C4849      C4854   1.403   1_565  A
C4849      H4856   1.079       .  S
C4850      C4851   1.411       .  A
C4851      C4852   1.400       .  A
C4851      C4858   1.517       .  S
C4852      C4853   1.405   1_565  A
C4852      H4857   1.082       .  S
C4853      C4854   1.420       .  A
C4854      C4855   1.520       .  S
C4855      F4859   1.385       .  S
C4855      F4860   1.384       .  S
C4855      F4861   1.383       .  S
C4858      F4862   1.385       .  S
C4858      F4863   1.382       .  S
C4858      F4864   1.384       .  S
C4865      C4866   1.416       .  A
C4865      C4870   1.413   1_556  A
C4865      H4872   1.083       .  S
C4866      C4867   1.415       .  A
C4867      C4868   1.419   1_556  A
C4867      C4874   1.515       .  S
C4868      C4869   1.415       .  A
C4868      H4873   1.084       .  S
C4869      C4870   1.413       .  A
C4870      C4871   1.516       .  S
C4871      F4875   1.385       .  S
C4871      F4876   1.382       .  S
C4871      F4877   1.384       .  S
C4874      F4878   1.383       .  S
C4874      F4879   1.383       .  S
C4874      F4880   1.384       .  S
C4881      C4882   1.397   1_556  A
C4881      C4886   1.395       .  A
C4881      H4888   1.086       .  S
C4882      C4883   1.410       .  A
C4883      C4884   1.408   1_564  A
C4883      C4890   1.516       .  S
C4884      C4885   1.404   1_545  A
C4884      H4889   1.085       .  S
C4885      C4886   1.417       .  A
C4886      C4887   1.523       .  S
C4887      F4891   1.384       .  S
C4887      F4892   1.383       .  S
C4887      F4893   1.384       .  S
C4890      F4894   1.384       .  S
C4890      F4895   1.382       .  S
C4890      F4896   1.384   1_565  S
C4897      C4898   1.422       .  A
C4897      C4902   1.415       .  A
C4897      H4904   1.081       .  S
C4898      C4899   1.415       .  A
C4899      C4900   1.415       .  A
C4899      C4906   1.516       .  S
C4900      C4901   1.416       .  A
C4900      H4905   1.083       .  S
C4901      C4902   1.410       .  A
C4902      C4903   1.515       .  S
C4903      F4907   1.383       .  S
C4903      F4908   1.383       .  S
C4903      F4909   1.381       .  S
C4906      F4910   1.383       .  S
C4906      F4911   1.383       .  S
C4906      F4912   1.384       .  S
C4913      C4914   1.400       .  A
C4913      C4918   1.399       .  A
C4913      H4920   1.079       .  S
C4914      C4915   1.409       .  A
C4915      C4916   1.395       .  A
C4915      C4922   1.515       .  S
C4916      C4917   1.403       .  A
C4916      H4921   1.081       .  S
C4917      C4918   1.421       .  A
C4918      C4919   1.521       .  S
C4919      F4923   1.385       .  S
C4919      F4924   1.384       .  S
C4919      F4925   1.381       .  S
C4922      F4926   1.382       .  S
C4922      F4927   1.383       .  S
C4922      F4928   1.383       .  S
C4929      C4930   1.422       .  A
C4929      C4934   1.414       .  A
C4929      H4936   1.080       .  S
C4930      C4931   1.414       .  A
C4931      C4932   1.417       .  A
C4931      C4938   1.516       .  S
C4932      C4933   1.419       .  A
C4932      H4937   1.081       .  S
C4933      C4934   1.412       .  A
C4934      C4935   1.513       .  S
C4935      F4939   1.386       .  S
C4935      F4940   1.379       .  S
C4935      F4941   1.383       .  S
C4938      F4942   1.383       .  S
C4938      F4943   1.383       .  S
C4938      F4944   1.385       .  S
C4945      C4946   1.421       .  A
C4945      C4950   1.413   1_554  A
C4945      H4952   1.084       .  S
C4946      C4947   1.415       .  A
C4947      C4948   1.418       .  A
C4947      C4954   1.517       .  S
C4948      C4949   1.418   1_554  A
C4948      H4953   1.085   1_554  S
C4949      C4950   1.410       .  A
C4950      C4951   1.518       .  S
C4951      F4955   1.384       .  S
C4951      F4956   1.383       .  S
C4951      F4957   1.384       .  S
C4954      F4958   1.383       .  S
C4954      F4959   1.384       .  S
C4954      F4960   1.384       .  S
C4961      C4962   1.403       .  A
C4961      C4966   1.397   1_556  A
C4961      H4968   1.078       .  S
C4962      C4963   1.424   1_556  A
C4963      C4964   1.404       .  A
C4963      C4970   1.520       .  S
C4964      C4965   1.401       .  A
C4964      H4969   1.083       .  S
C4965      C4966   1.409       .  A
C4966      C4967   1.516       .  S
C4967      F4971   1.383       .  S
C4967      F4972   1.382   1_554  S
C4967      F4973   1.384       .  S
C4970      F4974   1.383   1_554  S
C4970      F4975   1.384       .  S
C4970      F4976   1.384       .  S
C4977      C4978   1.421       .  A
C4977      C4982   1.412       .  A
C4977      H4984   1.081       .  S
C4978      C4979   1.414       .  A
C4979      C4980   1.414       .  A
C4979      C4986   1.517       .  S
C4980      C4981   1.418       .  A
C4980      H4985   1.082       .  S
C4981      C4982   1.412       .  A
C4982      C4983   1.519       .  S
C4983      F4987   1.384       .  S
C4983      F4988   1.384       .  S
C4983      F4989   1.383       .  S
C4986      F4990   1.383       .  S
C4986      F4991   1.383       .  S
C4986      F4992   1.385       .  S
C4993      C4994   1.418       .  A
C4993      C4998   1.418   1_565  A
C4993      H5000   1.083       .  S
C4994      C4995   1.406       .  A
C4995      C4996   1.404   1_565  A
C4995      C5002   1.518       .  S
C4996      C4997   1.420       .  A
C4996      H5001   1.082       .  S
C4997      C4998   1.413       .  A
C4998      C4999   1.515       .  S
C4999      F5003   1.385       .  S
C4999      F5004   1.383       .  S
C4999      F5005   1.383       .  S
C5002      F5006   1.382       .  S
C5002      F5007   1.383       .  S
C5002      F5008   1.385       .  S
C5009      C5010   1.423   1_554  A
C5009      C5014   1.413       .  A
C5009      H5016   1.079   1_554  S
C5010      C5011   1.413       .  A
C5011      C5012   1.412   1_556  A
C5011      C5018   1.517       .  S
C5012      C5013   1.418       .  A
C5012      H5017   1.081       .  S
C5013      C5014   1.410       .  A
C5014      C5015   1.518       .  S
C5015      F5019   1.385       .  S
C5015      F5020   1.383       .  S
C5015      F5021   1.383       .  S
C5018      F5022   1.383       .  S
C5018      F5023   1.382       .  S
C5018      F5024   1.385       .  S
C5025      C5026   1.405       .  A
C5025      C5030   1.406   1_556  A
C5025      H5032   1.084       .  S
C5026      C5027   1.408       .  A
C5027      C5028   1.394   1_556  A
C5027      C5034   1.511       .  S
C5028      C5029   1.401       .  A
C5028      H5033   1.085       .  S
C5029      C5030   1.421       .  A
C5030      C5031   1.519       .  S
C5031      F5035   1.384       .  S
C5031      F5036   1.383       .  S
C5031      F5037   1.384       .  S
C5034      F5038   1.383       .  S
C5034      F5039   1.384       .  S
C5034      F5040   1.383       .  S
C5041      C5042   1.402       .  A
C5041      C5046   1.401   1_565  A
C5041      H5048   1.084       .  S
C5042      C5043   1.410       .  A
C5043      C5044   1.397       .  A
C5043      C5050   1.515       .  S
C5044      C5045   1.403   1_565  A
C5044      H5049   1.084       .  S
C5045      C5046   1.422       .  A
C5046      C5047   1.522       .  S
C5047      F5051   1.385       .  S
C5047      F5052   1.383       .  S
C5047      F5053   1.383       .  S
C5050      F5054   1.383       .  S
C5050      F5055   1.382       .  S
C5050      F5056   1.384       .  S
C5057      C5058   1.403       .  A
C5057      C5062   1.395       .  A
C5057      H5064   1.072       .  S
C5058      C5059   1.422       .  A
C5059      C5060   1.403       .  A
C5059      C5066   1.519       .  S
C5060      C5061   1.402       .  A
C5060      H5065   1.081       .  S
C5061      C5062   1.406       .  A
C5062      C5063   1.512       .  S
C5063      F5067   1.382       .  S
C5063      F5068   1.383       .  S
C5063      F5069   1.383       .  S
C5066      F5070   1.383       .  S
C5066      F5071   1.383       .  S
C5066      F5072   1.385       .  S
C5073      C5074   1.415       .  A
C5073      C5078   1.417       .  A
C5073      H5080   1.082       .  S
C5074      C5075   1.408       .  A
C5075      C5076   1.412       .  A
C5075      C5082   1.519       .  S
C5076      C5077   1.422       .  A
C5076      H5081   1.081       .  S
C5077      C5078   1.414       .  A
C5078      C5079   1.514       .  S
C5079      F5083   1.385       .  S
C5079      F5084   1.383       .  S
C5079      F5085   1.383       .  S
C5082      F5086   1.383       .  S
C5082      F5087   1.383       .  S
C5082      F5088   1.383       .  S
C5089      C5090   1.420       .  A
C5089      C5094   1.421       .  A
C5089      H5096   1.085       .  S
C5090      C5091   1.411       .  A
C5091      C5092   1.411       .  A
C5091      C5098   1.518       .  S
C5092      C5093   1.421       .  A
C5092      H5097   1.082       .  S
C5093      C5094   1.415       .  A
C5094      C5095   1.517       .  S
C5095      F5099   1.384       .  S
C5095      F5100   1.382       .  S
C5095      F5101   1.384       .  S
C5098      F5102   1.382       .  S
C5098      F5103   1.382       .  S
C5098      F5104   1.382       .  S
C5105      C5106   1.415       .  A
C5105      C5110   1.411       .  A
C5105      H5112   1.082       .  S
C5106      C5107   1.416       .  A
C5107      C5108   1.420       .  A
C5107      C5114   1.515       .  S
C5108      C5109   1.414       .  A
C5108      H5113   1.082       .  S
C5109      C5110   1.412       .  A
C5110      C5111   1.514       .  S
C5111      F5115   1.385       .  S
C5111      F5116   1.383       .  S
C5111      F5117   1.382       .  S
C5114      F5118   1.383       .  S
C5114      F5119   1.384       .  S
C5114      F5120   1.384       .  S
C5121      C5122   1.419       .  A
C5121      C5126   1.413       .  A
C5121      H5128   1.081       .  S
C5122      C5123   1.411       .  A
C5123      C5124   1.412       .  A
C5123      C5130   1.516       .  S
C5124      C5125   1.415       .  A
C5124      H5129   1.083       .  S
C5125      C5126   1.411       .  A
C5126      C5127   1.518       .  S
C5127      F5131   1.385       .  S
C5127      F5132   1.382       .  S
C5127      F5133   1.384       .  S
C5130      F5134   1.383       .  S
C5130      F5135   1.384       .  S
C5130      F5136   1.384       .  S
C5137      C5138   1.397       .  A
C5137      C5142   1.400       .  A
C5137      H5144   1.083       .  S
C5138      C5139   1.410       .  A
C5139      C5140   1.401       .  A
C5139      C5146   1.508       .  S
C5140      C5141   1.401       .  A
C5140      H5145   1.084       .  S
C5141      C5142   1.424       .  A
C5142      C5143   1.519       .  S
C5143      F5147   1.384       .  S
C5143      F5148   1.383       .  S
C5143      F5149   1.381       .  S
C5146      F5150   1.382       .  S
C5146      F5151   1.384       .  S
C5146      F5152   1.384       .  S
C5153      C5154   1.404       .  A
C5153      C5158   1.402       .  A
C5153      H5160   1.069       .  S
C5154      C5155   1.420       .  A
C5155      C5156   1.407       .  A
C5155      C5162   1.518       .  S
C5156      C5157   1.404       .  A
C5156      H5161   1.081       .  S
C5157      C5158   1.411       .  A
C5158      C5159   1.517       .  S
C5159      F5163   1.380       .  S
C5159      F5164   1.382       .  S
C5159      F5165   1.384       .  S
C5162      F5166   1.383       .  S
C5162      F5167   1.384       .  S
C5162      F5168   1.385       .  S
C5169      C5170   1.417       .  A
C5169      C5174   1.414   1_565  A
C5169      H5176   1.083       .  S
C5170      C5171   1.408       .  A
C5171      C5172   1.411   1_565  A
C5171      C5178   1.518       .  S
C5172      C5173   1.423       .  A
C5172      H5177   1.082       .  S
C5173      C5174   1.414       .  A
C5174      C5175   1.516       .  S
C5175      F5179   1.385       .  S
C5175      F5180   1.382       .  S
C5175      F5181   1.383       .  S
C5178      F5182   1.383       .  S
C5178      F5183   1.383       .  S
C5178      F5184   1.385       .  S
C5185      C5186   1.402       .  A
C5185      C5190   1.396       .  A
C5185      H5192   1.083       .  S
C5186      C5187   1.422       .  A
C5187      C5188   1.408   1_565  A
C5187      C5194   1.519   1_565  S
C5188      C5189   1.405       .  A
C5188      H5193   1.082       .  S
C5189      C5190   1.413   1_545  A
C5190      C5191   1.515       .  S
C5191      F5195   1.384       .  S
C5191      F5196   1.383   1_565  S
C5191      F5197   1.383       .  S
C5194      F5198   1.384   1_545  S
C5194      F5199   1.382   1_545  S
C5194      F5200   1.385       .  S
C5201      C5202   1.402       .  A
C5201      C5206   1.401       .  A
C5201      H5208   1.082       .  S
C5202      C5203   1.408       .  A
C5203      C5204   1.398       .  A
C5203      C5210   1.511       .  S
C5204      C5205   1.402       .  A
C5204      H5209   1.086       .  S
C5205      C5206   1.423       .  A
C5206      C5207   1.523       .  S
C5207      F5211   1.385       .  S
C5207      F5212   1.384       .  S
C5207      F5213   1.383       .  S
C5210      F5214   1.384       .  S
C5210      F5215   1.381       .  S
C5210      F5216   1.385       .  S
C5217      C5218   1.422       .  A
C5217      C5222   1.415       .  A
C5217      H5224   1.080       .  S
C5218      C5219   1.417       .  A
C5219      C5220   1.422       .  A
C5219      C5226   1.517       .  S
C5220      C5221   1.420       .  A
C5220      H5225   1.082       .  S
C5221      C5222   1.411       .  A
C5222      C5223   1.518       .  S
C5223      F5227   1.385       .  S
C5223      F5228   1.383       .  S
C5223      F5229   1.383       .  S
C5226      F5230   1.383       .  S
C5226      F5231   1.383       .  S
C5226      F5232   1.385       .  S
