geometry optimzed in LAMMPS
_audit_creation_date              2020-12-01 
_audit_creation_method            'lammps2cif' 
_symmetry_space_group_name_H-M    'P1' 
_symmetry_Int_Tables_number       1 
_symmetry_cell_setting            triclinic 
loop_ 
_symmetry_equiv_pos_as_xyz 
  x,y,z 
_cell_length_a                    25.97826039 
_cell_length_b                    28.490498616949125 
_cell_length_c                    36.38334370270345 
_cell_angle_alpha                 90.00891415626265 
_cell_angle_beta                  89.99638614650536 
_cell_angle_gamma                 90.00126547248978 
loop_ 
_atom_site_label 
_atom_site_type_symbol 
_atom_site_fract_x 
_atom_site_fract_y 
_atom_site_fract_z 
_atom_site_charge 
O1          O  0.94680367  0.04879532  0.34327716    -0.66700
O2          O  0.05399699  0.28420540  0.34328223    -0.67600
O3          O  0.94395752  0.28353259  0.34624436    -0.56300
O4          O  0.05684084  0.04946917  0.34623696    -0.65500
O5          O  0.05402676  0.04878687  0.40729925    -0.64200
O6          O  0.94676310  0.28425032  0.40730643    -0.55500
O7          O  0.05680685  0.28351928  0.40434420    -0.68000
O8          O  0.94398594  0.04951720  0.40433918    -0.66800
Cu9        Cu  0.00039978  0.33316645  0.34257278     1.04600
Cu10       Cu  0.00039540  0.99985225  0.40801048     1.04300
C11         C  0.92746036  0.06381962  0.37303439     0.99500
C12         C  0.07333831  0.26920008  0.37304067     0.98700
C13         C  0.92741572  0.26923720  0.37754817     0.90800
C14         C  0.07337779  0.06378276  0.37753888     0.97100
C15         C  0.18168744  0.16649989  0.37524787     0.03800
C16         C  0.81910994  0.16651705  0.37525030     0.03800
C17         C  0.68168496  0.33317521  0.37517663     0.03800
O18         O  0.55398787  0.21546790  0.40714683    -0.66700
O19         O  0.44679672  0.11753974  0.40715206    -0.67600
O20         O  0.55683503  0.11687081  0.40419168    -0.56300
O21         O  0.44394888  0.21613569  0.40418514    -0.64700
O22         O  0.44676481  0.21541838  0.34312312    -0.64200
O23         O  0.55403079  0.11755342  0.34312949    -0.55500
O24         O  0.44398955  0.11681817  0.34608998    -0.68000
O25         O  0.55680765  0.21615440  0.34608478    -0.66800
Cu26       Cu  0.50039181  0.16650426  0.40785635     1.04600
Cu27       Cu  0.50039831  0.16648555  0.34241867     1.04300
C28         C  0.57333343  0.23047433  0.37738822     0.99500
C29         C  0.42745874  0.10251499  0.37739474     0.98700
C30         C  0.57337754  0.10255820  0.37288957     0.90800
C31         C  0.42741211  0.23043062  0.37288143     0.97100
C32         C  0.31910736  0.33314899  0.37517810     0.03800
C33         C  0.24337357  0.22583218  0.46667964     0.08600
C34         C  0.25762789  0.27383470  0.46668210     0.08500
C35         C  0.26475149  0.29710016  0.00021883    -0.12000
C36         C  0.25766571  0.27382916  0.03375253     0.08600
C37         C  0.24341268  0.22582585  0.03374915     0.08500
C38         C  0.23629464  0.20256020  0.00021268    -0.12000
H39         H  0.22411595  0.16610738  0.00021027     0.10600
H40         H  0.27692544  0.33355421  0.00022089     0.10600
O41         O  0.05693061  0.04945446  0.15418352    -0.66700
O42         O  0.94404675  0.28351869  0.15418957    -0.67600
O43         O  0.05408383  0.28419206  0.15714968    -0.56300
O44         O  0.94689096  0.04878224  0.15714524    -0.64700
O45         O  0.94408160  0.04946944  0.09608327    -0.64200
O46         O  0.05690198  0.28347094  0.09608765    -0.55500
O47         O  0.94686128  0.28420168  0.09312729    -0.68000
O48         O  0.05412539  0.04873798  0.09312144    -0.66800
Cu49       Cu  0.00048799  0.33315437  0.15785435     1.04600
Cu50       Cu  0.00049286  0.33313615  0.09241667     1.04300
C51         C  0.07347275  0.06375033  0.12287994     0.99500
C52         C  0.92751001  0.26920546  0.12288748     0.98700
C53         C  0.07342728  0.26916809  0.12739239     0.90800
C54         C  0.92754996  0.06378820  0.12738688     0.97100
C55         C  0.18177806  0.16647091  0.12517744     0.03800
C56         C  0.81920053  0.16648839  0.12517950     0.03800
C57         C  0.68177277  0.99984189  0.12525165     0.03800
C58         C  0.31919529  0.33314824  0.12524977     0.03800
O59         O  0.55693307  0.11685504  0.09624499    -0.66700
O60         O  0.44404597  0.21611873  0.09623554    -0.67600
O61         O  0.55408398  0.21545093  0.09327802    -0.56300
O62         O  0.44689386  0.11752182  0.09328050    -0.64700
O63         O  0.44407146  0.11683533  0.15434250    -0.64200
O64         O  0.55688847  0.21617266  0.15434017    -0.55500
O65         O  0.44684739  0.21543629  0.15729780    -0.68000
O66         O  0.55411432  0.11757226  0.15730695    -0.66800
Cu67       Cu  0.50048967  0.16648583  0.09257235     1.04600
Cu68       Cu  0.50048019  0.16650466  0.15801005     1.04300
C69         C  0.57346867  0.10256032  0.12754907     0.99500
C70         C  0.42750206  0.23043137  0.12753724     0.98700
C71         C  0.57342031  0.23047609  0.12303575     0.90800
C72         C  0.42754694  0.10251545  0.12303869     0.97100
C73         C  0.75747230  0.10716239  0.46667852     0.08600
C74         C  0.74321427  0.05916028  0.46667510     0.08500
C75         C  0.73612577  0.03588992  0.00020891    -0.12000
C76         C  0.74325167  0.05915469  0.03374577     0.08600
C77         C  0.75751092  0.10715603  0.03374825     0.08500
C78         C  0.76459249  0.13042739  0.00021515    -0.12000
H79         H  0.77677475  0.16687920  0.00021760     0.10600
H80         H  0.72394817  0.99943690  0.00020682     0.10600
C81         C  0.24321935  0.10716790  0.28375149     0.08600
C82         C  0.25747537  0.05916569  0.28375109     0.08500
C83         C  0.26459276  0.03589553  0.25021585    -0.12000
C84         C  0.25751051  0.05916129  0.21668124     0.08600
C85         C  0.24325381  0.10716282  0.21668073     0.08500
C86         C  0.23613085  0.13043283  0.25021620    -0.12000
H87         H  0.22395526  0.16688594  0.25021613     0.10600
H88         H  0.27677325  0.99944361  0.25021553     0.10600
C89         C  0.74337519  0.27382861  0.28374658     0.08600
C90         C  0.75763478  0.22582771  0.28374715     0.08500
C91         C  0.76475948  0.20255817  0.25021161    -0.12000
C92         C  0.75766955  0.22582253  0.21667617     0.08600
C93         C  0.74341051  0.27382407  0.21667656     0.08500
C94         C  0.73629184  0.29709388  0.25021185    -0.12000
H95         H  0.72410909  0.33354530  0.25021211     0.10600
H96         H  0.77693712  0.16610558  0.25021175     0.10600
C97         C  0.26958979  0.03353634  0.18338429    -0.07000
C98         C  0.28761397  0.01334682  0.15708214    -0.08500
C99         C  0.38634457  0.26372118  0.13017230    -0.07000
C100        C  0.35331388  0.29333525  0.13228283    -0.08500
C101        C  0.38640189  0.06921290  0.12039549    -0.07000
C102        C  0.35336337  0.03960786  0.11825985    -0.08500
C103        C  0.71335300  0.31963887  0.15707853    -0.07000
C104        C  0.73136194  0.29944549  0.18337845    -0.08500
C105        C  0.73123324  0.03352827  0.06704836    -0.07000
C106        C  0.71327288  0.01335069  0.09337438    -0.08500
C107        C  0.64765699  0.03965794  0.13229680    -0.07000
C108        C  0.61462646  0.06927188  0.13018910    -0.08500
C109        C  0.64760003  0.29338548  0.11825709    -0.07000
C110        C  0.61456172  0.26378099  0.12039156    -0.08500
C111        C  0.76971922  0.20019252  0.18337548    -0.07000
C112        C  0.78769638  0.18000609  0.15705505    -0.08500
C113        C  0.76959330  0.13277485  0.06704654    -0.07000
C114        C  0.78761910  0.15295907  0.09334921    -0.08500
C115        C  0.21327595  0.15296220  0.15705279    -0.07000
C116        C  0.23123557  0.13278513  0.18337741    -0.08500
C117        C  0.14760615  0.20626093  0.13217265    -0.07000
C118        C  0.11456879  0.23586491  0.13003756    -0.08500
C119        C  0.14766174  0.12665490  0.11813402    -0.07000
C120        C  0.11463056  0.09704027  0.12024121    -0.08500
C121        C  0.85336565  0.12669413  0.13216693    -0.07000
C122        C  0.88640392  0.09708949  0.13002990    -0.08500
C123        C  0.88635364  0.23591410  0.12025190    -0.07000
C124        C  0.85332255  0.20629963  0.11814307    -0.08500
C125        C  0.21336026  0.18000540  0.09334835    -0.07000
C126        C  0.23136799  0.20019920  0.06704651    -0.08500
C127        C  0.28769122  0.31963480  0.09337610    -0.07000
C128        C  0.26971435  0.29945401  0.06705454    -0.08500
C129        C  0.28760529  0.31964002  0.40705418    -0.07000
C130        C  0.26964461  0.29946184  0.43337969    -0.08500
C131        C  0.26952217  0.03354387  0.31704929    -0.07000
C132        C  0.28752934  0.01335090  0.34334997    -0.08500
C133        C  0.38625477  0.26371956  0.37024220    -0.07000
C134        C  0.35322428  0.29333346  0.36813423    -0.08500
C135        C  0.35327878  0.03960587  0.38217374    -0.07000
C136        C  0.38631688  0.06921060  0.38003966    -0.08500
C137        C  0.71318774  0.01335560  0.40705100    -0.07000
C138        C  0.73116428  0.03353608  0.43337290    -0.08500
C139        C  0.71326765  0.31964286  0.34334495    -0.07000
C140        C  0.73129360  0.29945316  0.31704342    -0.08500
C141        C  0.64756633  0.03965476  0.36814291    -0.07000
C142        C  0.61453523  0.06926852  0.37025356    -0.08500
C143        C  0.64751658  0.29338239  0.38216612    -0.07000
C144        C  0.61447823  0.26377720  0.38003058    -0.08500
C145        C  0.76951896  0.13278842  0.43338107    -0.07000
C146        C  0.78752746  0.15298196  0.40707927    -0.08500
C147        C  0.76965322  0.20020538  0.31705054    -0.07000
C148        C  0.78761245  0.18002746  0.34337501    -0.08500
C149        C  0.23129287  0.20021272  0.43338148    -0.07000
C150        C  0.21326799  0.18002829  0.40707867    -0.08500
C151        C  0.23117027  0.13279782  0.31705216    -0.07000
C152        C  0.21319253  0.15298343  0.34337266    -0.08500
C153        C  0.11448456  0.23589909  0.37039779    -0.07000
C154        C  0.14752272  0.20629442  0.36826068    -0.08500
C155        C  0.14756534  0.12668844  0.38228318    -0.07000
C156        C  0.11453416  0.09707411  0.38017412    -0.08500
C157        C  0.85328139  0.12672684  0.36825439    -0.07000
C158        C  0.88631875  0.09712278  0.37038914    -0.08500
C159        C  0.88625825  0.23594694  0.38018734    -0.07000
C160        C  0.85322699  0.20633236  0.38229444    -0.08500
O161        O  0.94680352  0.04879524  0.84327725    -0.66700
O162        O  0.05399707  0.28420546  0.84328219    -0.67600
O163        O  0.94395762  0.28353257  0.84624433    -0.56300
O164        O  0.05684074  0.04946922  0.84623692    -0.65500
O165        O  0.05402670  0.04878692  0.90729924    -0.64200
O166        O  0.94676318  0.28425029  0.90730642    -0.55500
O167        O  0.05680695  0.28351931  0.90434418    -0.68000
O168        O  0.94398595  0.04951723  0.90433930    -0.66800
Cu169      Cu  0.00039977  0.33316647  0.84257276     1.04600
Cu170      Cu  0.00039544  0.99985227  0.90801059     1.04300
C171        C  0.92746029  0.06381958  0.87303449     0.99500
C172        C  0.07333838  0.26920014  0.87304063     0.98700
C173        C  0.92741580  0.26923717  0.87754814     0.90800
C174        C  0.07337772  0.06378278  0.87753886     0.97100
C175        C  0.18168742  0.16649988  0.87524793     0.03800
C176        C  0.81910992  0.16651707  0.87525025     0.03800
C177        C  0.68168485  0.33317523  0.87517661     0.03800
O178        O  0.55398795  0.21546786  0.90714681    -0.66700
O179        O  0.44679679  0.11753977  0.90715202    -0.67600
O180        O  0.55683489  0.11687077  0.90419162    -0.56300
O181        O  0.44394892  0.21613571  0.90418523    -0.64700
O182        O  0.44676483  0.21541836  0.84312321    -0.64200
O183        O  0.55403082  0.11755347  0.84312943    -0.55500
O184        O  0.44398965  0.11681817  0.84608994    -0.68000
O185        O  0.55680755  0.21615445  0.84608474    -0.66800
Cu186      Cu  0.50039184  0.16650428  0.90785633     1.04600
Cu187      Cu  0.50039833  0.16648557  0.84241864     1.04300
C188        C  0.57333342  0.23047431  0.87738817     0.99500
C189        C  0.42745884  0.10251500  0.87739470     0.98700
C190        C  0.57337746  0.10255819  0.87288952     0.90800
C191        C  0.42741212  0.23043060  0.87288152     0.97100
C192        C  0.31910746  0.33314902  0.87517809     0.03800
C193        C  0.24337352  0.22583220  0.96667966     0.08600
C194        C  0.25762789  0.27383472  0.96668210     0.08500
C195        C  0.26475155  0.29710015  0.50021883    -0.12000
C196        C  0.25766581  0.27382915  0.53375252     0.08600
C197        C  0.24341272  0.22582586  0.53374915     0.08500
C198        C  0.23629455  0.20256021  0.50021268    -0.12000
H199        H  0.22411572  0.16610747  0.50021030     0.10600
H200        H  0.27692550  0.33355419  0.50022088     0.10600
O201        O  0.05693071  0.04945446  0.65418348    -0.66700
O202        O  0.94404683  0.28351868  0.65418952    -0.67600
O203        O  0.05408394  0.28419209  0.65714970    -0.56300
O204        O  0.94689104  0.04878226  0.65714527    -0.64700
O205        O  0.94408162  0.04946944  0.59608331    -0.64200
O206        O  0.05690188  0.28347081  0.59608767    -0.55500
O207        O  0.94686126  0.28420169  0.59312725    -0.68000
O208        O  0.05412539  0.04873798  0.59312140    -0.66800
Cu209      Cu  0.00048808  0.33315439  0.65785434     1.04600
Cu210      Cu  0.00049282  0.33313612  0.59241663     1.04300
C211        C  0.07347282  0.06375032  0.62287989     0.99500
C212        C  0.92751007  0.26920544  0.62288745     0.98700
C213        C  0.07342727  0.26916804  0.62739241     0.90800
C214        C  0.92755004  0.06378823  0.62738692     0.97100
C215        C  0.18177809  0.16647093  0.62517742     0.03800
C216        C  0.81920057  0.16648840  0.62517952     0.03800
C217        C  0.68177276  0.99984191  0.62525161     0.03800
C218        C  0.31919532  0.33314826  0.62524975     0.03800
O219        O  0.55693299  0.11685502  0.59624495    -0.66700
O220        O  0.44404608  0.21611877  0.59623550    -0.67600
O221        O  0.55408406  0.21545091  0.59327798    -0.56300
O222        O  0.44689394  0.11752182  0.59328047    -0.64700
O223        O  0.44407136  0.11683540  0.65434246    -0.64200
O224        O  0.55688853  0.21617264  0.65434013    -0.55500
O225        O  0.44684732  0.21543626  0.65729777    -0.68000
O226        O  0.55411423  0.11757224  0.65730690    -0.66800
Cu227      Cu  0.50048972  0.16648583  0.59257231     1.04600
Cu228      Cu  0.50048015  0.16650466  0.65801001     1.04300
C229        C  0.57346861  0.10256033  0.62754903     0.99500
C230        C  0.42750208  0.23043138  0.62753719     0.98700
C231        C  0.57342037  0.23047606  0.62303571     0.90800
C232        C  0.42754696  0.10251546  0.62303864     0.97100
C233        C  0.75747237  0.10716238  0.96667854     0.08600
C234        C  0.74321433  0.05916027  0.96667512     0.08500
C235        C  0.73612577  0.03588992  0.50020887    -0.12000
C236        C  0.74325158  0.05915472  0.53374573     0.08600
C237        C  0.75751095  0.10715604  0.53374822     0.08500
C238        C  0.76459256  0.13042738  0.50021512    -0.12000
H239        H  0.77677490  0.16687916  0.50021757     0.10600
H240        H  0.72394829  0.99943685  0.50020676     0.10600
C241        C  0.24321933  0.10716788  0.78375149     0.08600
C242        C  0.25747549  0.05916569  0.78375109     0.08500
C243        C  0.26459279  0.03589554  0.75021584    -0.12000
C244        C  0.25751035  0.05916122  0.71668121     0.08600
C245        C  0.24325366  0.10716277  0.71668071     0.08500
C246        C  0.23613073  0.13043279  0.75021619    -0.12000
H247        H  0.22395505  0.16688581  0.75021612     0.10600
H248        H  0.27677337  0.99944354  0.75021551     0.10600
C249        C  0.74337510  0.27382862  0.78374656     0.08600
C250        C  0.75763482  0.22582775  0.78374714     0.08500
C251        C  0.76475958  0.20255821  0.75021161    -0.12000
C252        C  0.75766959  0.22582253  0.71667615     0.08600
C253        C  0.74341061  0.27382409  0.71667652     0.08500
C254        C  0.73629188  0.29709389  0.75021181    -0.12000
H255        H  0.72410919  0.33354534  0.75021205     0.10600
H256        H  0.77693723  0.16610561  0.75021179     0.10600
C257        C  0.26958962  0.03353630  0.68338423    -0.07000
C258        C  0.28761399  0.01334685  0.65708211    -0.08500
C259        C  0.38634464  0.26372122  0.63017222    -0.07000
C260        C  0.35331397  0.29333530  0.63228278    -0.08500
C261        C  0.38640196  0.06921289  0.62039541    -0.07000
C262        C  0.35336344  0.03960786  0.61825981    -0.08500
C263        C  0.71335283  0.31963884  0.65707852    -0.07000
C264        C  0.73136194  0.29944550  0.68337840    -0.08500
C265        C  0.73123325  0.03352826  0.56704832    -0.07000
C266        C  0.71327289  0.01335068  0.59337434    -0.08500
C267        C  0.64765702  0.03965800  0.63229676    -0.07000
C268        C  0.61462648  0.06927196  0.63018906    -0.08500
C269        C  0.64759991  0.29338556  0.61825702    -0.07000
C270        C  0.61456172  0.26378098  0.62039151    -0.08500
C271        C  0.76971910  0.20019249  0.68337545    -0.07000
C272        C  0.78769634  0.18000611  0.65705503    -0.08500
C273        C  0.76959341  0.13277484  0.56704650    -0.07000
C274        C  0.78761920  0.15295903  0.59334919    -0.08500
C275        C  0.21327592  0.15296220  0.65705278    -0.07000
C276        C  0.23123541  0.13278508  0.68337741    -0.08500
C277        C  0.14760614  0.20626092  0.63217261    -0.07000
C278        C  0.11456873  0.23586484  0.63003757    -0.08500
C279        C  0.14766179  0.12665492  0.61813397    -0.07000
C280        C  0.11463064  0.09704026  0.62024116    -0.08500
C281        C  0.85336575  0.12669417  0.63216702    -0.07000
C282        C  0.88640401  0.09708952  0.63002994    -0.08500
C283        C  0.88635366  0.23591410  0.62025186    -0.07000
C284        C  0.85332251  0.20629968  0.61814304    -0.08500
C285        C  0.21336029  0.18000540  0.59334834    -0.07000
C286        C  0.23136808  0.20019921  0.56704652    -0.08500
C287        C  0.28769129  0.31963481  0.59337608    -0.07000
C288        C  0.26971446  0.29945403  0.56705451    -0.08500
C289        C  0.28760541  0.31964002  0.90705418    -0.07000
C290        C  0.26964469  0.29946183  0.93337968    -0.08500
C291        C  0.26952228  0.03354389  0.81704930    -0.07000
C292        C  0.28752938  0.01335095  0.84335001    -0.08500
C293        C  0.38625481  0.26371955  0.87024224    -0.07000
C294        C  0.35322436  0.29333348  0.86813418    -0.08500
C295        C  0.35327889  0.03960588  0.88217372    -0.07000
C296        C  0.38631699  0.06921061  0.88003962    -0.08500
C297        C  0.71318778  0.01335564  0.90705098    -0.07000
C298        C  0.73116436  0.03353607  0.93337290    -0.08500
C299        C  0.71326746  0.31964286  0.84334489    -0.07000
C300        C  0.73129353  0.29945319  0.81704339    -0.08500
C301        C  0.64756627  0.03965477  0.86814288    -0.07000
C302        C  0.61453516  0.06926853  0.87025355    -0.08500
C303        C  0.64751646  0.29338242  0.88216610    -0.07000
C304        C  0.61447820  0.26377716  0.88003051    -0.08500
C305        C  0.76951906  0.13278840  0.93338107    -0.07000
C306        C  0.78752752  0.15298194  0.90707925    -0.08500
C307        C  0.76965322  0.20020541  0.81705054    -0.07000
C308        C  0.78761235  0.18002743  0.84337500    -0.08500
C309        C  0.23129288  0.20021271  0.93338152    -0.07000
C310        C  0.21326801  0.18002834  0.90707869    -0.08500
C311        C  0.23117010  0.13279782  0.81705215    -0.07000
C312        C  0.21319243  0.15298342  0.84337268    -0.08500
C313        C  0.11448456  0.23589911  0.87039775    -0.07000
C314        C  0.14752264  0.20629436  0.86826070    -0.08500
C315        C  0.14756536  0.12668839  0.88228333    -0.07000
C316        C  0.11453419  0.09707405  0.88017413    -0.08500
C317        C  0.85328144  0.12672690  0.86825433    -0.07000
C318        C  0.88631875  0.09712281  0.87038921    -0.08500
C319        C  0.88625827  0.23594695  0.88018730    -0.07000
C320        C  0.85322692  0.20633244  0.88229438    -0.08500
O321        O  0.94680363  0.38212856  0.34327716    -0.66700
O322        O  0.05399699  0.61753888  0.34328224    -0.67600
O323        O  0.94395747  0.61686612  0.34624437    -0.56300
O324        O  0.05684084  0.38280246  0.34623696    -0.65500
O325        O  0.05402678  0.38212025  0.40729925    -0.64200
O326        O  0.94676316  0.61758358  0.40730644    -0.55500
O327        O  0.05680687  0.61685270  0.40434420    -0.68000
O328        O  0.94398594  0.38285055  0.40433918    -0.66800
Cu329      Cu  0.00039977  0.66649995  0.34257279     1.04600
Cu330      Cu  0.00039540  0.33318564  0.40801047     1.04300
C331        C  0.92746034  0.39715293  0.37303438     0.99500
C332        C  0.07333827  0.60253349  0.37304066     0.98700
C333        C  0.92741575  0.60257054  0.37754815     0.90800
C334        C  0.07337779  0.39711612  0.37753887     0.97100
C335        C  0.18168742  0.49983333  0.37524785     0.03800
C336        C  0.81910991  0.49985041  0.37525031     0.03800
C337        C  0.68168499  0.66650860  0.37517663     0.03800
O338        O  0.55398781  0.54880132  0.40714683    -0.66700
O339        O  0.44679675  0.45087297  0.40715206    -0.67600
O340        O  0.55683508  0.45020422  0.40419168    -0.56300
O341        O  0.44394882  0.54946891  0.40418513    -0.64700
O342        O  0.44676484  0.54875178  0.34312311    -0.64200
O343        O  0.55403082  0.45088683  0.34312950    -0.55500
O344        O  0.44398956  0.45015143  0.34608998    -0.68000
O345        O  0.55680761  0.54948781  0.34608478    -0.66800
Cu346      Cu  0.50039179  0.49983758  0.40785635     1.04600
Cu347      Cu  0.50039830  0.49981891  0.34241867     1.04300
C348        C  0.57333342  0.56380772  0.37738822     0.99500
C349        C  0.42745877  0.43584824  0.37739474     0.98700
C350        C  0.57337755  0.43589158  0.37288957     0.90800
C351        C  0.42741210  0.56376392  0.37288143     0.97100
C352        C  0.31910738  0.66648231  0.37517811     0.03800
C353        C  0.24337358  0.55916543  0.46667966     0.08600
C354        C  0.25762788  0.60716795  0.46668211     0.08500
C355        C  0.26475149  0.63043340  0.00021883    -0.12000
C356        C  0.25766570  0.60716240  0.03375252     0.08600
C357        C  0.24341269  0.55915910  0.03374914     0.08500
C358        C  0.23629464  0.53589343  0.00021268    -0.12000
H359        H  0.22411594  0.49944061  0.00021027     0.10600
H360        H  0.27692543  0.66688745  0.00022089     0.10600
O361        O  0.05693058  0.38278792  0.15418353    -0.66700
O362        O  0.94404673  0.61685197  0.15418957    -0.67600
O363        O  0.05408384  0.61752535  0.15714968    -0.56300
O364        O  0.94689104  0.38211578  0.15714525    -0.64700
O365        O  0.94408158  0.38280272  0.09608328    -0.64200
O366        O  0.05690196  0.61680422  0.09608765    -0.55500
O367        O  0.94686125  0.61753499  0.09312729    -0.68000
O368        O  0.05412541  0.38207121  0.09312145    -0.66800
Cu369      Cu  0.00048797  0.66648763  0.15785435     1.04600
Cu370      Cu  0.00049285  0.66646945  0.09241666     1.04300
C371        C  0.07347275  0.39708365  0.12287993     0.99500
C372        C  0.92750997  0.60253879  0.12288748     0.98700
C373        C  0.07342730  0.60250141  0.12739239     0.90800
C374        C  0.92754999  0.39712161  0.12738687     0.97100
C375        C  0.18177804  0.49980420  0.12517745     0.03800
C376        C  0.81920058  0.49982169  0.12517950     0.03800
C377        C  0.68177278  0.33317510  0.12525162     0.03800
C378        C  0.31919526  0.66648151  0.12524977     0.03800
O379        O  0.55693304  0.45018824  0.09624499    -0.66700
O380        O  0.44404602  0.54945215  0.09623553    -0.67600
O381        O  0.55408405  0.54878417  0.09327803    -0.56300
O382        O  0.44689384  0.45085515  0.09328050    -0.64700
O383        O  0.44407148  0.45016863  0.15434250    -0.64200
O384        O  0.55688841  0.54950612  0.15434017    -0.55500
O385        O  0.44684731  0.54876952  0.15729780    -0.68000
O386        O  0.55411442  0.45090567  0.15730694    -0.66800
Cu387      Cu  0.50048968  0.49981912  0.09257235     1.04600
Cu388      Cu  0.50048019  0.49983799  0.15801004     1.04300
C389        C  0.57346874  0.43589364  0.12754908     0.99500
C390        C  0.42750207  0.56376473  0.12753724     0.98700
C391        C  0.57342030  0.56380947  0.12303575     0.90800
C392        C  0.42754692  0.43584879  0.12303869     0.97100
C393        C  0.75747230  0.44049565  0.46667851     0.08600
C394        C  0.74321428  0.39249355  0.46667512     0.08500
C395        C  0.73612576  0.36922320  0.00020893    -0.12000
C396        C  0.74325162  0.39248799  0.03374579     0.08600
C397        C  0.75751090  0.44048932  0.03374826     0.08500
C398        C  0.76459250  0.46376067  0.00021514    -0.12000
H399        H  0.77677477  0.50021247  0.00021758     0.10600
H400        H  0.72394820  0.33277018  0.00020685     0.10600
C401        C  0.24321936  0.44050129  0.28375149     0.08600
C402        C  0.25747540  0.39249910  0.28375111     0.08500
C403        C  0.26459274  0.36922887  0.25021590    -0.12000
C404        C  0.25751049  0.39249455  0.21668125     0.08600
C405        C  0.24325379  0.44049609  0.21668072     0.08500
C406        C  0.23613083  0.46376616  0.25021617    -0.12000
H407        H  0.22395519  0.50021927  0.25021605     0.10600
H408        H  0.27677320  0.33277694  0.25021563     0.10600
C409        C  0.74337516  0.60716186  0.28374660     0.08600
C410        C  0.75763476  0.55916095  0.28374715     0.08500
C411        C  0.76475947  0.53589141  0.25021161    -0.12000
C412        C  0.75766953  0.55915578  0.21667618     0.08600
C413        C  0.74341048  0.60715732  0.21667656     0.08500
C414        C  0.73629182  0.63042711  0.25021186    -0.12000
H415        H  0.72410908  0.66687854  0.25021211     0.10600
H416        H  0.77693711  0.49943882  0.25021175     0.10600
C417        C  0.26958979  0.36686956  0.18338430    -0.07000
C418        C  0.28761401  0.34668008  0.15708214    -0.08500
C419        C  0.38634463  0.59705457  0.13017233    -0.07000
C420        C  0.35331386  0.62666856  0.13228285    -0.08500
C421        C  0.38640194  0.40254618  0.12039550    -0.07000
C422        C  0.35336354  0.37294105  0.11825988    -0.08500
C423        C  0.71335301  0.65297229  0.15707856    -0.07000
C424        C  0.73136192  0.63277879  0.18337845    -0.08500
C425        C  0.73123322  0.36686156  0.06704836    -0.07000
C426        C  0.71327289  0.34668392  0.09337436    -0.08500
C427        C  0.64765703  0.37299117  0.13229680    -0.07000
C428        C  0.61462657  0.40260520  0.13018913    -0.08500
C429        C  0.64759997  0.62671895  0.11825711    -0.07000
C430        C  0.61456165  0.59711446  0.12039153    -0.08500
C431        C  0.76971921  0.53352582  0.18337547    -0.07000
C432        C  0.78769638  0.51333948  0.15705500    -0.08500
C433        C  0.76959338  0.46610812  0.06704653    -0.07000
C434        C  0.78761925  0.48629232  0.09334918    -0.08500
C435        C  0.21327594  0.48629545  0.15705279    -0.07000
C436        C  0.23123556  0.46611836  0.18337740    -0.08500
C437        C  0.14760609  0.53959418  0.13217268    -0.07000
C438        C  0.11456879  0.56919820  0.13003757    -0.08500
C439        C  0.14766177  0.45998817  0.11813399    -0.07000
C440        C  0.11463059  0.43037354  0.12024117    -0.08500
C441        C  0.85336562  0.46002742  0.13216698    -0.07000
C442        C  0.88640389  0.43042280  0.13002987    -0.08500
C443        C  0.88635364  0.56924740  0.12025190    -0.07000
C444        C  0.85332262  0.53963288  0.11814306    -0.08500
C445        C  0.21336023  0.51333879  0.09334839    -0.07000
C446        C  0.23136798  0.53353250  0.06704651    -0.08500
C447        C  0.28769120  0.65296803  0.09337611    -0.07000
C448        C  0.26971434  0.63278725  0.06705454    -0.08500
C449        C  0.28760529  0.65297328  0.40705418    -0.07000
C450        C  0.26964460  0.63279508  0.43337969    -0.08500
C451        C  0.26952219  0.36687735  0.31704932    -0.07000
C452        C  0.28752933  0.34668429  0.34334995    -0.08500
C453        C  0.38625472  0.59705282  0.37024223    -0.07000
C454        C  0.35322424  0.62666674  0.36813421    -0.08500
C455        C  0.35327877  0.37293920  0.38217373    -0.07000
C456        C  0.38631691  0.40254388  0.38003966    -0.08500
C457        C  0.71318772  0.34668900  0.40705097    -0.07000
C458        C  0.73116428  0.36686938  0.43337291    -0.08500
C459        C  0.71326766  0.65297632  0.34334492    -0.07000
C460        C  0.73129357  0.63278647  0.31704343    -0.08500
C461        C  0.64756629  0.37298805  0.36814288    -0.07000
C462        C  0.61453516  0.40260180  0.37025355    -0.08500
C463        C  0.64751661  0.62671576  0.38216609    -0.07000
C464        C  0.61447831  0.59711052  0.38003058    -0.08500
C465        C  0.76951896  0.46612166  0.43338105    -0.07000
C466        C  0.78752744  0.48631526  0.40707928    -0.08500
C467        C  0.76965320  0.53353861  0.31705053    -0.07000
C468        C  0.78761242  0.51336075  0.34337502    -0.08500
C469        C  0.23129287  0.53354603  0.43338150    -0.07000
C470        C  0.21326796  0.51336176  0.40707864    -0.08500
C471        C  0.23117023  0.46613124  0.31705215    -0.07000
C472        C  0.21319253  0.48631691  0.34337264    -0.08500
C473        C  0.11448444  0.56923242  0.37039778    -0.07000
C474        C  0.14752266  0.53962781  0.36826066    -0.08500
C475        C  0.14756532  0.46002187  0.38228317    -0.07000
C476        C  0.11453418  0.43040750  0.38017411    -0.08500
C477        C  0.85328141  0.46006024  0.36825440    -0.07000
C478        C  0.88631879  0.43045619  0.37038913    -0.08500
C479        C  0.88625828  0.56928028  0.38018730    -0.07000
C480        C  0.85322692  0.53966578  0.38229445    -0.08500
O481        O  0.94680349  0.38212847  0.84327725    -0.66700
O482        O  0.05399707  0.61753894  0.84328224    -0.67600
O483        O  0.94395757  0.61686609  0.84624434    -0.56300
O484        O  0.05684074  0.38280252  0.84623693    -0.65500
O485        O  0.05402671  0.38212030  0.90729924    -0.64200
O486        O  0.94676322  0.61758356  0.90730643    -0.55500
O487        O  0.05680696  0.61685272  0.90434424    -0.68000
O488        O  0.94398594  0.38285058  0.90433929    -0.66800
Cu489      Cu  0.00039976  0.66649996  0.84257278     1.04600
Cu490      Cu  0.00039544  0.33318566  0.90801058     1.04300
C491        C  0.92746027  0.39715290  0.87303448     0.99500
C492        C  0.07333834  0.60253354  0.87304068     0.98700
C493        C  0.92741584  0.60257053  0.87754813     0.90800
C494        C  0.07337772  0.39711614  0.87753885     0.97100
C495        C  0.18168740  0.49983332  0.87524791     0.03800
C496        C  0.81910989  0.49985043  0.87525027     0.03800
C497        C  0.68168492  0.66650862  0.87517659     0.03800
O498        O  0.55398790  0.54880128  0.90714681    -0.66700
O499        O  0.44679682  0.45087300  0.90715202    -0.67600
O500        O  0.55683498  0.45020420  0.90419162    -0.56300
O501        O  0.44394886  0.54946893  0.90418522    -0.64700
O502        O  0.44676486  0.54875175  0.84312320    -0.64200
O503        O  0.55403090  0.45088689  0.84312943    -0.55500
O504        O  0.44398966  0.45015142  0.84608994    -0.68000
O505        O  0.55680751  0.54948786  0.84608474    -0.66800
Cu506      Cu  0.50039184  0.49983759  0.90785633     1.04600
Cu507      Cu  0.50039834  0.49981893  0.84241864     1.04300
C508        C  0.57333342  0.56380770  0.87738818     0.99500
C509        C  0.42745886  0.43584824  0.87739470     0.98700
C510        C  0.57337754  0.43589162  0.87288952     0.90800
C511        C  0.42741210  0.56376390  0.87288152     0.97100
C512        C  0.31910747  0.66648233  0.87517811     0.03800
C513        C  0.24337352  0.55916545  0.96667968     0.08600
C514        C  0.25762789  0.60716796  0.96668210     0.08500
C515        C  0.26475154  0.63043339  0.50021883    -0.12000
C516        C  0.25766580  0.60716239  0.53375251     0.08600
C517        C  0.24341273  0.55915910  0.53374914     0.08500
C518        C  0.23629455  0.53589344  0.50021268    -0.12000
H519        H  0.22411571  0.49944071  0.50021030     0.10600
H520        H  0.27692549  0.66688742  0.50022088     0.10600
O521        O  0.05693067  0.38278793  0.65418349    -0.66700
O522        O  0.94404681  0.61685197  0.65418952    -0.67600
O523        O  0.05408392  0.61752537  0.65714971    -0.56300
O524        O  0.94689112  0.38211580  0.65714528    -0.64700
O525        O  0.94408162  0.38280273  0.59608331    -0.64200
O526        O  0.05690193  0.61680426  0.59608768    -0.55500
O527        O  0.94686124  0.61753499  0.59312725    -0.68000
O528        O  0.05412543  0.38207119  0.59312141    -0.66800
Cu529      Cu  0.00048806  0.66648764  0.65785434     1.04600
Cu530      Cu  0.00049281  0.66646946  0.59241663     1.04300
C531        C  0.07347282  0.39708364  0.62287988     0.99500
C532        C  0.92751002  0.60253876  0.62288744     0.98700
C533        C  0.07342731  0.60250143  0.62739241     0.90800
C534        C  0.92755007  0.39712163  0.62738691     0.97100
C535        C  0.18177805  0.49980423  0.62517742     0.03800
C536        C  0.81920056  0.49982170  0.62517951     0.03800
C537        C  0.68177269  0.33317513  0.62525158     0.03800
C538        C  0.31919528  0.66648153  0.62524976     0.03800
O539        O  0.55693294  0.45018821  0.59624495    -0.66700
O540        O  0.44404612  0.54945217  0.59623548    -0.67600
O541        O  0.55408413  0.54878415  0.59327799    -0.56300
O542        O  0.44689390  0.45085513  0.59328047    -0.64700
O543        O  0.44407140  0.45016868  0.65434246    -0.64200
O544        O  0.55688850  0.54950610  0.65434013    -0.55500
O545        O  0.44684741  0.54876954  0.65729775    -0.68000
O546        O  0.55411447  0.45090571  0.65730691    -0.66800
Cu547      Cu  0.50048973  0.49981912  0.59257231     1.04600
Cu548      Cu  0.50048023  0.49983800  0.65801001     1.04300
C549        C  0.57346868  0.43589364  0.62754903     0.99500
C550        C  0.42750217  0.56376474  0.62753720     0.98700
C551        C  0.57342036  0.56380944  0.62303571     0.90800
C552        C  0.42754692  0.43584879  0.62303864     0.97100
C553        C  0.75747237  0.44049564  0.96667853     0.08600
C554        C  0.74321434  0.39249353  0.96667513     0.08500
C555        C  0.73612576  0.36922320  0.50020889    -0.12000
C556        C  0.74325152  0.39248801  0.53374574     0.08600
C557        C  0.75751093  0.44048932  0.53374822     0.08500
C558        C  0.76459256  0.46376065  0.50021511    -0.12000
H559        H  0.77677492  0.50021242  0.50021754     0.10600
H560        H  0.72394832  0.33277014  0.50020680     0.10600
C561        C  0.24321933  0.44050130  0.78375150     0.08600
C562        C  0.25747552  0.39249912  0.78375110     0.08500
C563        C  0.26459278  0.36922888  0.75021587    -0.12000
C564        C  0.25751033  0.39249454  0.71668122     0.08600
C565        C  0.24325368  0.44049610  0.71668071     0.08500
C566        C  0.23613071  0.46376617  0.75021617    -0.12000
H567        H  0.22395496  0.50021921  0.75021608     0.10600
H568        H  0.27677331  0.33277698  0.75021558     0.10600
C569        C  0.74337507  0.60716186  0.78374657     0.08600
C570        C  0.75763480  0.55916098  0.78374714     0.08500
C571        C  0.76475957  0.53589144  0.75021161    -0.12000
C572        C  0.75766956  0.55915578  0.71667616     0.08600
C573        C  0.74341058  0.60715734  0.71667653     0.08500
C574        C  0.73629186  0.63042713  0.75021182    -0.12000
H575        H  0.72410920  0.66687858  0.75021205     0.10600
H576        H  0.77693722  0.49943884  0.75021179     0.10600
C577        C  0.26958960  0.36686956  0.68338424    -0.07000
C578        C  0.28761399  0.34668009  0.65708212    -0.08500
C579        C  0.38634473  0.59705459  0.63017229    -0.07000
C580        C  0.35331396  0.62666859  0.63228281    -0.08500
C581        C  0.38640194  0.40254618  0.62039542    -0.07000
C582        C  0.35336348  0.37294110  0.61825984    -0.08500
C583        C  0.71335300  0.65297226  0.65707851    -0.07000
C584        C  0.73136200  0.63277880  0.68337839    -0.08500
C585        C  0.73123324  0.36686155  0.56704833    -0.07000
C586        C  0.71327290  0.34668391  0.59337433    -0.08500
C587        C  0.64765697  0.37299121  0.63229673    -0.07000
C588        C  0.61462647  0.40260519  0.63018905    -0.08500
C589        C  0.64759992  0.62671897  0.61825705    -0.07000
C590        C  0.61456165  0.59711444  0.62039149    -0.08500
C591        C  0.76971909  0.53352579  0.68337545    -0.07000
C592        C  0.78769635  0.51333951  0.65705500    -0.08500
C593        C  0.76959341  0.46610811  0.56704650    -0.07000
C594        C  0.78761919  0.48629229  0.59334920    -0.08500
C595        C  0.21327590  0.48629546  0.65705276    -0.07000
C596        C  0.23123540  0.46611837  0.68337740    -0.08500
C597        C  0.14760606  0.53959418  0.63217263    -0.07000
C598        C  0.11456871  0.56919816  0.63003754    -0.08500
C599        C  0.14766181  0.45998818  0.61813394    -0.07000
C600        C  0.11463067  0.43037352  0.62024112    -0.08500
C601        C  0.85336568  0.46002745  0.63216704    -0.07000
C602        C  0.88640397  0.43042284  0.63002991    -0.08500
C603        C  0.88635365  0.56924739  0.62025186    -0.07000
C604        C  0.85332255  0.53963293  0.61814302    -0.08500
C605        C  0.21336026  0.51333880  0.59334837    -0.07000
C606        C  0.23136807  0.53353251  0.56704652    -0.08500
C607        C  0.28769127  0.65296804  0.59337608    -0.07000
C608        C  0.26971445  0.63278726  0.56705451    -0.08500
C609        C  0.28760540  0.65297328  0.90705417    -0.07000
C610        C  0.26964469  0.63279507  0.93337968    -0.08500
C611        C  0.26952230  0.36687737  0.81704932    -0.07000
C612        C  0.28752938  0.34668434  0.84334999    -0.08500
C613        C  0.38625476  0.59705281  0.87024226    -0.07000
C614        C  0.35322432  0.62666676  0.86813417    -0.08500
C615        C  0.35327888  0.37293922  0.88217371    -0.07000
C616        C  0.38631702  0.40254389  0.88003962    -0.08500
C617        C  0.71318771  0.34668904  0.90705094    -0.07000
C618        C  0.73116434  0.36686936  0.93337290    -0.08500
C619        C  0.71326763  0.65297633  0.84334489    -0.07000
C620        C  0.73129358  0.63278650  0.81704341    -0.08500
C621        C  0.64756617  0.37298805  0.86814285    -0.07000
C622        C  0.61453513  0.40260186  0.87025354    -0.08500
C623        C  0.64751652  0.62671579  0.88216604    -0.07000
C624        C  0.61447829  0.59711049  0.88003050    -0.08500
C625        C  0.76951906  0.46612164  0.93338106    -0.07000
C626        C  0.78752751  0.48631523  0.90707926    -0.08500
C627        C  0.76965320  0.53353865  0.81705052    -0.07000
C628        C  0.78761232  0.51336072  0.84337501    -0.08500
C629        C  0.23129289  0.53354602  0.93338154    -0.07000
C630        C  0.21326798  0.51336181  0.90707866    -0.08500
C631        C  0.23117007  0.46613124  0.81705215    -0.07000
C632        C  0.21319242  0.48631689  0.84337266    -0.08500
C633        C  0.11448444  0.56923244  0.87039779    -0.07000
C634        C  0.14752257  0.53962775  0.86826069    -0.08500
C635        C  0.14756535  0.46002182  0.88228332    -0.07000
C636        C  0.11453420  0.43040744  0.88017412    -0.08500
C637        C  0.85328146  0.46006030  0.86825435    -0.07000
C638        C  0.88631879  0.43045622  0.87038920    -0.08500
C639        C  0.88625830  0.56928029  0.88018726    -0.07000
C640        C  0.85322685  0.53966586  0.88229438    -0.08500
O641        O  0.94680367  0.71546212  0.34327716    -0.66700
O642        O  0.05399699  0.95087213  0.34328224    -0.67600
O643        O  0.94395746  0.95019940  0.34624437    -0.56300
O644        O  0.05684087  0.71613579  0.34623697    -0.65500
O645        O  0.05402670  0.71545367  0.40729926    -0.64200
O646        O  0.94676313  0.95091686  0.40730644    -0.55500
O647        O  0.05680686  0.95018592  0.40434420    -0.68000
O648        O  0.94398593  0.71618399  0.40433918    -0.66800
Cu649      Cu  0.00039978  0.99983322  0.34257278     1.04600
Cu650      Cu  0.00039539  0.66651902  0.40801048     1.04300
C651        C  0.92746035  0.73048642  0.37303439     0.99500
C652        C  0.07333827  0.93586672  0.37304066     0.98700
C653        C  0.92741571  0.93590386  0.37754816     0.90800
C654        C  0.07337779  0.73044945  0.37753888     0.97100
C655        C  0.18168741  0.83316658  0.37524787     0.03800
C656        C  0.81910990  0.83318373  0.37525032     0.03800
C657        C  0.68168497  0.99984189  0.37517663     0.03800
O658        O  0.55398781  0.88213466  0.40714683    -0.66700
O659        O  0.44679678  0.78420630  0.40715207    -0.67600
O660        O  0.55683505  0.78353756  0.40419168    -0.56300
O661        O  0.44394880  0.88280224  0.40418513    -0.64700
O662        O  0.44676483  0.88208505  0.34312311    -0.64200
O663        O  0.55403077  0.78422007  0.34312949    -0.55500
O664        O  0.44398950  0.78348484  0.34608999    -0.68000
O665        O  0.55680763  0.88282106  0.34608478    -0.66800
Cu666      Cu  0.50039179  0.83317095  0.40785635     1.04600
Cu667      Cu  0.50039829  0.83315220  0.34241867     1.04300
C668        C  0.57333341  0.89714103  0.37738822     0.99500
C669        C  0.42745874  0.76918162  0.37739474     0.98700
C670        C  0.57337749  0.76922486  0.37288957     0.90800
C671        C  0.42741209  0.89709724  0.37288143     0.97100
C672        C  0.31910737  0.99981562  0.37517812     0.03800
C673        C  0.24337356  0.89249876  0.46667965     0.08600
C674        C  0.25762790  0.94050125  0.46668211     0.08500
C675        C  0.26475150  0.96376670  0.00021883    -0.12000
C676        C  0.25766571  0.94049573  0.03375253     0.08600
C677        C  0.24341269  0.89249240  0.03374916     0.08500
C678        C  0.23629461  0.86922682  0.00021268    -0.12000
H679        H  0.22411582  0.83277387  0.00021025     0.10600
H680        H  0.27692544  0.00022074  0.00022086     0.10600
O681        O  0.05693058  0.71612117  0.15418353    -0.66700
O682        O  0.94404681  0.95018521  0.15418957    -0.67600
O683        O  0.05408389  0.95085874  0.15714967    -0.56300
O684        O  0.94689098  0.71544903  0.15714524    -0.64700
O685        O  0.94408162  0.71613614  0.09608327    -0.64200
O686        O  0.05690195  0.95013755  0.09608764    -0.55500
O687        O  0.94686132  0.95086831  0.09312730    -0.68000
O688        O  0.05412543  0.71540446  0.09312145    -0.66800
Cu689      Cu  0.00048800  0.99982091  0.15785434     1.04600
Cu690      Cu  0.00049286  0.99980285  0.09241666     1.04300
C691        C  0.07347273  0.73041694  0.12287993     0.99500
C692        C  0.92751009  0.93587202  0.12288748     0.98700
C693        C  0.07342729  0.93583473  0.12739239     0.90800
C694        C  0.92755001  0.73045497  0.12738688     0.97100
C695        C  0.18177804  0.83313747  0.12517745     0.03800
C696        C  0.81920055  0.83315507  0.12517948     0.03800
C697        C  0.68177280  0.66650852  0.12525163     0.03800
C698        C  0.31919522  0.99981498  0.12524976     0.03800
O699        O  0.55693309  0.78352177  0.09624499    -0.66700
O700        O  0.44404597  0.88278553  0.09623553    -0.67600
O701        O  0.55408395  0.88211774  0.09327802    -0.56300
O702        O  0.44689388  0.78418845  0.09328050    -0.64700
O703        O  0.44407141  0.78350203  0.15434249    -0.64200
O704        O  0.55688844  0.88283939  0.15434016    -0.55500
O705        O  0.44684730  0.88210285  0.15729779    -0.68000
O706        O  0.55411435  0.78423890  0.15730694    -0.66800
Cu707      Cu  0.50048967  0.83315258  0.09257235     1.04600
Cu708      Cu  0.50048017  0.83317129  0.15801004     1.04300
C709        C  0.57346869  0.76922698  0.12754907     0.99500
C710        C  0.42750204  0.89709809  0.12753725     0.98700
C711        C  0.57342027  0.89714289  0.12303576     0.90800
C712        C  0.42754692  0.76918211  0.12303868     0.97100
C713        C  0.75747230  0.77382899  0.46667851     0.08600
C714        C  0.74321429  0.72582689  0.46667511     0.08500
C715        C  0.73612570  0.70255658  0.00020893    -0.12000
C716        C  0.74325162  0.72582136  0.03374580     0.08600
C717        C  0.75751093  0.77382267  0.03374827     0.08500
C718        C  0.76459249  0.79709396  0.00021515    -0.12000
H719        H  0.77677480  0.83354585  0.00021759     0.10600
H720        H  0.72394809  0.66610356  0.00020686     0.10600
C721        C  0.24321935  0.77383459  0.28375149     0.08600
C722        C  0.25747537  0.72583237  0.28375110     0.08500
C723        C  0.26459271  0.70256215  0.25021588    -0.12000
C724        C  0.25751047  0.72582787  0.21668124     0.08600
C725        C  0.24325377  0.77382942  0.21668073     0.08500
C726        C  0.23613083  0.79709940  0.25021618    -0.12000
H727        H  0.22395521  0.83355262  0.25021607     0.10600
H728        H  0.27677319  0.66611022  0.25021559     0.10600
C729        C  0.74337516  0.94049519  0.28374659     0.08600
C730        C  0.75763473  0.89249427  0.28374716     0.08500
C731        C  0.76475947  0.86922466  0.25021162    -0.12000
C732        C  0.75766950  0.89248907  0.21667618     0.08600
C733        C  0.74341047  0.94049060  0.21667656     0.08500
C734        C  0.73629183  0.96376049  0.25021184    -0.12000
H735        H  0.72410919  0.00021178  0.25021208     0.10600
H736        H  0.77693709  0.83277217  0.25021176     0.10600
C737        C  0.26958981  0.70020295  0.18338426    -0.07000
C738        C  0.28761399  0.68001339  0.15708214    -0.08500
C739        C  0.38634460  0.93038797  0.13017234    -0.07000
C740        C  0.35331392  0.96000206  0.13228285    -0.08500
C741        C  0.38640196  0.73587944  0.12039552    -0.07000
C742        C  0.35336354  0.70627431  0.11825989    -0.08500
C743        C  0.71335298  0.98630559  0.15707856    -0.07000
C744        C  0.73136189  0.96611205  0.18337843    -0.08500
C745        C  0.73123319  0.70019495  0.06704837    -0.07000
C746        C  0.71327289  0.68001726  0.09337435    -0.08500
C747        C  0.64765709  0.70632461  0.13229678    -0.07000
C748        C  0.61462653  0.73593854  0.13018909    -0.08500
C749        C  0.64760001  0.96005229  0.11825710    -0.07000
C750        C  0.61456170  0.93044781  0.12039156    -0.08500
C751        C  0.76971919  0.86685906  0.18337549    -0.07000
C752        C  0.78769636  0.84667274  0.15705501    -0.08500
C753        C  0.76959339  0.79944145  0.06704654    -0.07000
C754        C  0.78761923  0.81962574  0.09334916    -0.08500
C755        C  0.21327594  0.81962876  0.15705279    -0.07000
C756        C  0.23123558  0.79945175  0.18337743    -0.08500
C757        C  0.14760606  0.87292744  0.13217267    -0.07000
C758        C  0.11456874  0.90253145  0.13003759    -0.08500
C759        C  0.14766175  0.79332146  0.11813399    -0.07000
C760        C  0.11463049  0.76370691  0.12024117    -0.08500
C761        C  0.85336560  0.79336078  0.13216695    -0.07000
C762        C  0.88640393  0.76375621  0.13002990    -0.08500
C763        C  0.88635370  0.90258068  0.12025190    -0.07000
C764        C  0.85332257  0.87296627  0.11814308    -0.08500
C765        C  0.21336023  0.84667204  0.09334837    -0.07000
C766        C  0.23136799  0.86686577  0.06704651    -0.08500
C767        C  0.28769117  0.98630141  0.09337611    -0.07000
C768        C  0.26971431  0.96612064  0.06705453    -0.08500
C769        C  0.28760528  0.98630654  0.40705417    -0.07000
C770        C  0.26964460  0.96612834  0.43337969    -0.08500
C771        C  0.26952217  0.70021066  0.31704932    -0.07000
C772        C  0.28752935  0.68001769  0.34334999    -0.08500
C773        C  0.38625479  0.93038620  0.37024223    -0.07000
C774        C  0.35322427  0.96000007  0.36813422    -0.08500
C775        C  0.35327880  0.70627251  0.38217375    -0.07000
C776        C  0.38631685  0.73587727  0.38003964    -0.08500
C777        C  0.71318780  0.68002231  0.40705099    -0.07000
C778        C  0.73116450  0.70020266  0.43337290    -0.08500
C779        C  0.71326765  0.98630963  0.34334492    -0.07000
C780        C  0.73129360  0.96611986  0.31704340    -0.08500
C781        C  0.64756634  0.70632147  0.36814290    -0.07000
C782        C  0.61453512  0.73593513  0.37025357    -0.08500
C783        C  0.64751659  0.96004905  0.38216609    -0.07000
C784        C  0.61447822  0.93044389  0.38003057    -0.08500
C785        C  0.76951897  0.79945494  0.43338105    -0.07000
C786        C  0.78752745  0.81964851  0.40707926    -0.08500
C787        C  0.76965318  0.86687188  0.31705053    -0.07000
C788        C  0.78761241  0.84669401  0.34337501    -0.08500
C789        C  0.23129283  0.86687942  0.43338148    -0.07000
C790        C  0.21326795  0.84669507  0.40707865    -0.08500
C791        C  0.23117026  0.79946461  0.31705213    -0.07000
C792        C  0.21319253  0.81965021  0.34337264    -0.08500
C793        C  0.11448443  0.90256565  0.37039778    -0.07000
C794        C  0.14752264  0.87296104  0.36826066    -0.08500
C795        C  0.14756534  0.79335511  0.38228318    -0.07000
C796        C  0.11453421  0.76374075  0.38017409    -0.08500
C797        C  0.85328141  0.79339362  0.36825439    -0.07000
C798        C  0.88631876  0.76378958  0.37038914    -0.08500
C799        C  0.88625826  0.90261359  0.38018730    -0.07000
C800        C  0.85322691  0.87299908  0.38229445    -0.08500
O801        O  0.94680352  0.71546204  0.84327725    -0.66700
O802        O  0.05399709  0.95087217  0.84328219    -0.67600
O803        O  0.94395756  0.95019937  0.84624434    -0.56300
O804        O  0.05684076  0.71613587  0.84623694    -0.65500
O805        O  0.05402681  0.71545366  0.90729926    -0.64200
O806        O  0.94676321  0.95091684  0.90730643    -0.55500
O807        O  0.05680697  0.95018594  0.90434418    -0.68000
O808        O  0.94398596  0.71618404  0.90433929    -0.66800
Cu809      Cu  0.00039977  0.99983323  0.84257277     1.04600
Cu810      Cu  0.00039547  0.66651904  0.90801060     1.04300
C811        C  0.92746029  0.73048639  0.87303449     0.99500
C812        C  0.07333836  0.93586675  0.87304063     0.98700
C813        C  0.92741579  0.93590384  0.87754813     0.90800
C814        C  0.07337780  0.73044945  0.87753885     0.97100
C815        C  0.18168745  0.83316658  0.87524794     0.03800
C816        C  0.81910988  0.83318375  0.87525027     0.03800
C817        C  0.68168497  0.99984192  0.87517660     0.03800
O818        O  0.55398790  0.88213464  0.90714679    -0.66700
O819        O  0.44679685  0.78420632  0.90715202    -0.67600
O820        O  0.55683496  0.78353753  0.90419163    -0.56300
O821        O  0.44394884  0.88280226  0.90418522    -0.64700
O822        O  0.44676487  0.88208504  0.84312320    -0.64200
O823        O  0.55403085  0.78422012  0.84312943    -0.55500
O824        O  0.44398960  0.78348485  0.84608994    -0.68000
O825        O  0.55680771  0.88282106  0.84608473    -0.66800
Cu826      Cu  0.50039183  0.83317095  0.90785633     1.04600
Cu827      Cu  0.50039837  0.83315222  0.84241864     1.04300
C828        C  0.57333349  0.89714101  0.87738817     0.99500
C829        C  0.42745884  0.76918163  0.87739470     0.98700
C830        C  0.57337748  0.76922489  0.87288953     0.90800
C831        C  0.42741210  0.89709721  0.87288151     0.97100
C832        C  0.31910746  0.99981564  0.87517812     0.03800
C833        C  0.24337350  0.89249879  0.96667967     0.08600
C834        C  0.25762790  0.94050127  0.96668211     0.08500
C835        C  0.26475156  0.96376669  0.50021883    -0.12000
C836        C  0.25766581  0.94049572  0.53375252     0.08600
C837        C  0.24341273  0.89249242  0.53374915     0.08500
C838        C  0.23629452  0.86922683  0.50021267    -0.12000
H839        H  0.22411559  0.83277397  0.50021028     0.10600
H840        H  0.27692550  0.00022071  0.50022085     0.10600
O841        O  0.05693068  0.71612118  0.65418349    -0.66700
O842        O  0.94404684  0.95018521  0.65418952    -0.67600
O843        O  0.05408398  0.95085876  0.65714970    -0.56300
O844        O  0.94689107  0.71544905  0.65714527    -0.64700
O845        O  0.94408164  0.71613614  0.59608330    -0.64200
O846        O  0.05690191  0.95013758  0.59608768    -0.55500
O847        O  0.94686126  0.95086832  0.59312725    -0.68000
O848        O  0.05412544  0.71540447  0.59312141    -0.66800
Cu849      Cu  0.00048807  0.99982092  0.65785433     1.04600
Cu850      Cu  0.00049282  0.99980286  0.59241663     1.04300
C851        C  0.07347281  0.73041694  0.62287988     0.99500
C852        C  0.92751005  0.93587203  0.62288744     0.98700
C853        C  0.07342730  0.93583474  0.62739241     0.90800
C854        C  0.92755008  0.73045500  0.62738691     0.97100
C855        C  0.18177810  0.83313750  0.62517741     0.03800
C856        C  0.81920053  0.83315506  0.62517948     0.03800
C857        C  0.68177278  0.66650850  0.62525159     0.03800
C858        C  0.31919530  0.99981499  0.62524974     0.03800
O859        O  0.55693295  0.78352156  0.59624495    -0.66700
O860        O  0.44404609  0.88278555  0.59623549    -0.67600
O861        O  0.55408405  0.88211770  0.59327798    -0.56300
O862        O  0.44689393  0.78418844  0.59328047    -0.64700
O863        O  0.44407132  0.78350208  0.65434245    -0.64200
O864        O  0.55688852  0.88283937  0.65434013    -0.55500
O865        O  0.44684740  0.88210287  0.65729775    -0.68000
O866        O  0.55411444  0.78423894  0.65730690    -0.66800
Cu867      Cu  0.50048971  0.83315254  0.59257231     1.04600
Cu868      Cu  0.50048022  0.83317131  0.65801000     1.04300
C869        C  0.57346865  0.76922689  0.62754902     0.99500
C870        C  0.42750215  0.89709811  0.62753721     0.98700
C871        C  0.57342034  0.89714286  0.62303572     0.90800
C872        C  0.42754691  0.76918211  0.62303864     0.97100
C873        C  0.75747237  0.77382897  0.96667853     0.08600
C874        C  0.74321429  0.72582687  0.96667513     0.08500
C875        C  0.73612571  0.70255658  0.50020889    -0.12000
C876        C  0.74325152  0.72582138  0.53374575     0.08600
C877        C  0.75751097  0.77382266  0.53374823     0.08500
C878        C  0.76459256  0.79709394  0.50021512    -0.12000
H879        H  0.77677494  0.83354581  0.50021756     0.10600
H880        H  0.72394824  0.66610351  0.50020679     0.10600
C881        C  0.24321932  0.77383459  0.78375149     0.08600
C882        C  0.25747548  0.72583240  0.78375109     0.08500
C883        C  0.26459275  0.70256216  0.75021585    -0.12000
C884        C  0.25751031  0.72582786  0.71668121     0.08600
C885        C  0.24325366  0.77382942  0.71668073     0.08500
C886        C  0.23613071  0.79709941  0.75021618    -0.12000
H887        H  0.22395497  0.83355256  0.75021610     0.10600
H888        H  0.27677330  0.66611025  0.75021554     0.10600
C889        C  0.74337526  0.94049522  0.78374656     0.08600
C890        C  0.75763482  0.89249431  0.78374714     0.08500
C891        C  0.76475957  0.86922467  0.75021163    -0.12000
C892        C  0.75766961  0.89248906  0.71667618     0.08600
C893        C  0.74341058  0.94049060  0.71667652     0.08500
C894        C  0.73629193  0.96376051  0.75021180    -0.12000
H895        H  0.72410929  0.00021179  0.75021202     0.10600
H896        H  0.77693719  0.83277218  0.75021180     0.10600
C897        C  0.26958962  0.70020295  0.68338421    -0.07000
C898        C  0.28761397  0.68001340  0.65708212    -0.08500
C899        C  0.38634470  0.93038798  0.63017230    -0.07000
C900        C  0.35331401  0.96000207  0.63228281    -0.08500
C901        C  0.38640196  0.73587944  0.62039544    -0.07000
C902        C  0.35336348  0.70627436  0.61825984    -0.08500
C903        C  0.71335299  0.98630557  0.65707851    -0.07000
C904        C  0.73136197  0.96611205  0.68337837    -0.08500
C905        C  0.73123320  0.70019495  0.56704834    -0.07000
C906        C  0.71327289  0.68001726  0.59337431    -0.08500
C907        C  0.64765701  0.70632452  0.63229674    -0.07000
C908        C  0.61462644  0.73593843  0.63018904    -0.08500
C909        C  0.64759993  0.96005236  0.61825705    -0.07000
C910        C  0.61456170  0.93044780  0.62039152    -0.08500
C911        C  0.76971928  0.86685907  0.68337549    -0.07000
C912        C  0.78769640  0.84667277  0.65705500    -0.08500
C913        C  0.76959341  0.79944145  0.56704651    -0.07000
C914        C  0.78761916  0.81962571  0.59334917    -0.08500
C915        C  0.21327596  0.81962877  0.65705277    -0.07000
C916        C  0.23123545  0.79945175  0.68337745    -0.08500
C917        C  0.14760608  0.87292745  0.63217262    -0.07000
C918        C  0.11456869  0.90253139  0.63003756    -0.08500
C919        C  0.14766184  0.79332147  0.61813394    -0.07000
C920        C  0.11463059  0.76370691  0.62024112    -0.08500
C921        C  0.85336566  0.79336081  0.63216701    -0.07000
C922        C  0.88640402  0.76375625  0.63002993    -0.08500
C923        C  0.88635365  0.90258070  0.62025186    -0.07000
C924        C  0.85332249  0.87296630  0.61814303    -0.08500
C925        C  0.21336032  0.84667204  0.59334836    -0.07000
C926        C  0.23136809  0.86686578  0.56704651    -0.08500
C927        C  0.28769127  0.98630143  0.59337608    -0.07000
C928        C  0.26971442  0.96612065  0.56705450    -0.08500
C929        C  0.28760540  0.98630653  0.90705417    -0.07000
C930        C  0.26964469  0.96612833  0.93337967    -0.08500
C931        C  0.26952228  0.70021068  0.81704932    -0.07000
C932        C  0.28752939  0.68001774  0.84335002    -0.08500
C933        C  0.38625483  0.93038619  0.87024226    -0.07000
C934        C  0.35322435  0.96000009  0.86813418    -0.08500
C935        C  0.35327891  0.70627253  0.88217372    -0.07000
C936        C  0.38631696  0.73587728  0.88003960    -0.08500
C937        C  0.71318771  0.68002236  0.90705096    -0.07000
C938        C  0.73116434  0.70020267  0.93337291    -0.08500
C939        C  0.71326768  0.98630963  0.84334489    -0.07000
C940        C  0.73129368  0.96611989  0.81704337    -0.08500
C941        C  0.64756624  0.70632146  0.86814286    -0.07000
C942        C  0.61453510  0.73593518  0.87025356    -0.08500
C943        C  0.64751657  0.96004910  0.88216605    -0.07000
C944        C  0.61447825  0.93044389  0.88003052    -0.08500
C945        C  0.76951907  0.79945491  0.93338105    -0.07000
C946        C  0.78752751  0.81964848  0.90707925    -0.08500
C947        C  0.76965318  0.86687191  0.81705052    -0.07000
C948        C  0.78761231  0.84669398  0.84337500    -0.08500
C949        C  0.23129285  0.86687941  0.93338152    -0.07000
C950        C  0.21326801  0.84669509  0.90707868    -0.08500
C951        C  0.23117010  0.79946460  0.81705212    -0.07000
C952        C  0.21319246  0.81965018  0.84337267    -0.08500
C953        C  0.11448450  0.90256568  0.87039774    -0.07000
C954        C  0.14752269  0.87296104  0.86826068    -0.08500
C955        C  0.14756537  0.79335511  0.88228332    -0.07000
C956        C  0.11453426  0.76374073  0.88017406    -0.08500
C957        C  0.85328145  0.79339368  0.86825434    -0.07000
C958        C  0.88631876  0.76378961  0.87038921    -0.08500
C959        C  0.88625828  0.90261360  0.88018726    -0.07000
C960        C  0.85322684  0.87299916  0.88229439    -0.08500
loop_ 
_geom_bond_atom_site_label_1 
_geom_bond_atom_site_label_2 
_geom_bond_distance 
_geom_bond_site_symmetry_2 
_ccdc_geom_bond_type 
O1           C11   1.268       .  A
O1         Cu649   1.971   1_645  S
O2           C12   1.268       .  A
O2           Cu9   1.971       .  S
O3           C13   1.284       .  A
O3           Cu9   2.041   1_655  S
O4           C14   1.284       .  A
O4         Cu649   2.041   1_545  S
O5           C14   1.268       .  A
O5          Cu10   1.971   1_545  S
O6           C13   1.268       .  A
O6         Cu330   1.971   1_655  S
O7           C12   1.284       .  A
O7         Cu330   2.041       .  S
O8           C11   1.284       .  A
O8          Cu10   2.041   1_645  S
Cu9         O321   1.971   1_455  S
Cu9         O324   2.041       .  S
Cu9        Cu330   2.381       .  S
Cu10        O646   1.971   1_455  S
Cu10        O647   2.041       .  S
Cu10       Cu649   2.381       .  S
C11         C158   1.432       .  S
C12         C153   1.432       .  S
C13         C159   1.432       .  S
C14         C156   1.432       .  S
C15         C150   1.471       .  S
C15         C152   1.471       .  S
C15         C154   1.462       .  S
C15         C155   1.462       .  S
C16         C146   1.471       .  S
C16         C148   1.471       .  S
C16         C157   1.462       .  S
C16         C160   1.462       .  S
C17         C139   1.471       .  S
C17         C143   1.462       .  S
C17         C457   1.471       .  S
C17         C461   1.462       .  S
O18          C28   1.268       .  A
O18         Cu26   1.971       .  S
O19          C29   1.268       .  A
O19         Cu26   1.971       .  S
O20          C30   1.284       .  A
O20         Cu26   2.041       .  S
O21          C31   1.284       .  A
O21         Cu26   2.041       .  S
O22          C31   1.268       .  A
O22         Cu27   1.971       .  S
O23          C30   1.268       .  A
O23         Cu27   1.971       .  S
O24          C29   1.284       .  A
O24         Cu27   2.041       .  S
O25          C28   1.284       .  A
O25         Cu27   2.041       .  S
Cu26        Cu27   2.381       .  S
C28         C144   1.432       .  S
C29         C136   1.432       .  S
C30         C142   1.432       .  S
C31         C133   1.432       .  S
C32         C129   1.471       .  S
C32         C134   1.462       .  S
C32         C452   1.471       .  S
C32         C455   1.462       .  S
C33         C149   1.449       .  S
C33          C34   1.417       .  A
C33         C198   1.401       .  A
C34         C130   1.449       .  S
C34         C195   1.401       .  A
C35          C36   1.401       .  A
C35         C194   1.401   1_554  A
C35          H40   1.086       .  S
C36         C128   1.449       .  S
C36          C37   1.417       .  A
C37         C126   1.449       .  S
C37          C38   1.401       .  A
C38         C193   1.401   1_554  A
C38          H39   1.086       .  S
O41          C51   1.284       .  A
O41        Cu689   2.041   1_545  S
O42          C52   1.284       .  A
O42         Cu49   2.041   1_655  S
O43          C53   1.268       .  A
O43         Cu49   1.971       .  S
O44          C54   1.268       .  A
O44        Cu689   1.971   1_645  S
O45          C54   1.284       .  A
O45        Cu690   2.041   1_645  S
O46          C53   1.284       .  A
O46         Cu50   2.041       .  S
O47          C52   1.268       .  A
O47         Cu50   1.971   1_655  S
O48          C51   1.268       .  A
O48        Cu690   1.971   1_545  S
Cu49        O361   2.041       .  S
Cu49        O364   1.971   1_455  S
Cu49        Cu50   2.381       .  S
Cu50        O365   2.041   1_455  S
Cu50        O368   1.971       .  S
C51         C120   1.432       .  S
C52         C123   1.432       .  S
C53         C118   1.432       .  S
C54         C122   1.432       .  S
C55         C115   1.471       .  S
C55         C117   1.462       .  S
C55         C119   1.462       .  S
C55         C125   1.471       .  S
C56         C112   1.471       .  S
C56         C114   1.471       .  S
C56         C121   1.462       .  S
C56         C124   1.462       .  S
C57         C106   1.471   1_565  S
C57         C107   1.462   1_565  S
C57         C743   1.471       .  S
C57         C749   1.462       .  S
C58         C100   1.462       .  S
C58         C127   1.471       .  S
C58         C418   1.471       .  S
C58         C422   1.462       .  S
O59          C69   1.284       .  A
O59         Cu67   2.041       .  S
O60          C70   1.284       .  A
O60         Cu67   2.041       .  S
O61          C71   1.268       .  A
O61         Cu67   1.971       .  S
O62          C72   1.268       .  A
O62         Cu67   1.971       .  S
O63          C72   1.284       .  A
O63         Cu68   2.041       .  S
O64          C71   1.284       .  A
O64         Cu68   2.041       .  S
O65          C70   1.268       .  A
O65         Cu68   1.971       .  S
O66          C69   1.268       .  A
O66         Cu68   1.971       .  S
Cu67        Cu68   2.381       .  S
C69         C108   1.432       .  S
C70          C99   1.432       .  S
C71         C110   1.432       .  S
C72         C101   1.432       .  S
C73         C145   1.449       .  S
C73          C74   1.417       .  A
C73         C238   1.401       .  A
C74         C138   1.449       .  S
C74         C235   1.401       .  A
C75          C76   1.401       .  A
C75         C234   1.401   1_554  A
C75          H80   1.086   1_545  S
C76         C105   1.449       .  S
C76          C77   1.417       .  A
C77         C113   1.449       .  S
C77          C78   1.401       .  A
C78         C233   1.401   1_554  A
C78          H79   1.086       .  S
C81         C151   1.449       .  S
C81          C82   1.417       .  A
C81          C86   1.401       .  A
C82         C131   1.449       .  S
C82          C83   1.401       .  A
C83          C84   1.401       .  A
C83          H88   1.086   1_545  S
C84          C97   1.449       .  S
C84          C85   1.417       .  A
C85         C116   1.449       .  S
C85          C86   1.401       .  A
C86          H87   1.086       .  S
C89         C140   1.449       .  S
C89          C90   1.417       .  A
C89          C94   1.401       .  A
C90         C147   1.449       .  S
C90          C91   1.401       .  A
C91          C92   1.401       .  A
C91          H96   1.086       .  S
C92         C111   1.449       .  S
C92          C93   1.417       .  A
C93         C104   1.449       .  S
C93          C94   1.401       .  A
C94          H95   1.086       .  S
C97          C98   1.211       .  T
C98         C698   1.471   1_545  S
C99         C100   1.206       .  T
C101        C102   1.206       .  T
C102        C698   1.462   1_545  S
C103        C377   1.471       .  S
C103        C104   1.211       .  T
C105        C106   1.211       .  T
C107        C108   1.206       .  T
C109        C377   1.462       .  S
C109        C110   1.206       .  T
C111        C112   1.211       .  T
C113        C114   1.211       .  T
C115        C116   1.211       .  T
C117        C118   1.206       .  T
C119        C120   1.206       .  T
C121        C122   1.206       .  T
C123        C124   1.206       .  T
C125        C126   1.211       .  T
C127        C128   1.211       .  T
C129        C130   1.211       .  T
C131        C132   1.211       .  T
C132        C672   1.471   1_545  S
C133        C134   1.206       .  T
C135        C672   1.462   1_545  S
C135        C136   1.206       .  T
C137        C657   1.471   1_545  S
C137        C138   1.211       .  T
C139        C140   1.211       .  T
C141        C657   1.462   1_545  S
C141        C142   1.206       .  T
C143        C144   1.206       .  T
C145        C146   1.211       .  T
C147        C148   1.211       .  T
C149        C150   1.211       .  T
C151        C152   1.211       .  T
C153        C154   1.206       .  T
C155        C156   1.206       .  T
C157        C158   1.206       .  T
C159        C160   1.206       .  T
O161        C171   1.268       .  A
O161       Cu809   1.971   1_645  S
O162        C172   1.268       .  A
O162       Cu169   1.971       .  S
O163        C173   1.284       .  A
O163       Cu169   2.041   1_655  S
O164        C174   1.284       .  A
O164       Cu809   2.041   1_545  S
O165        C174   1.268       .  A
O165       Cu170   1.971   1_545  S
O166        C173   1.268       .  A
O166       Cu490   1.971   1_655  S
O167        C172   1.284       .  A
O167       Cu490   2.041       .  S
O168        C171   1.284       .  A
O168       Cu170   2.041   1_645  S
Cu169       O481   1.971   1_455  S
Cu169       O484   2.041       .  S
Cu169      Cu490   2.381       .  S
Cu170       O806   1.971   1_455  S
Cu170       O807   2.041       .  S
Cu170      Cu809   2.381       .  S
C171        C318   1.432       .  S
C172        C313   1.432       .  S
C173        C319   1.432       .  S
C174        C316   1.432       .  S
C175        C310   1.471       .  S
C175        C312   1.471       .  S
C175        C314   1.462       .  S
C175        C315   1.462       .  S
C176        C306   1.471       .  S
C176        C308   1.471       .  S
C176        C317   1.462       .  S
C176        C320   1.462       .  S
C177        C617   1.471       .  S
C177        C299   1.471       .  S
C177        C621   1.462       .  S
C177        C303   1.462       .  S
O178        C188   1.268       .  A
O178       Cu186   1.971       .  S
O179        C189   1.268       .  A
O179       Cu186   1.971       .  S
O180        C190   1.284       .  A
O180       Cu186   2.041       .  S
O181        C191   1.284       .  A
O181       Cu186   2.041       .  S
O182        C191   1.268       .  A
O182       Cu187   1.971       .  S
O183        C190   1.268       .  A
O183       Cu187   1.971       .  S
O184        C189   1.284       .  A
O184       Cu187   2.041       .  S
O185        C188   1.284       .  A
O185       Cu187   2.041       .  S
Cu186      Cu187   2.381       .  S
C188        C304   1.432       .  S
C189        C296   1.432       .  S
C190        C302   1.432       .  S
C191        C293   1.432       .  S
C192        C289   1.471       .  S
C192        C612   1.471       .  S
C192        C294   1.462       .  S
C192        C615   1.462       .  S
C193        C309   1.449       .  S
C193        C194   1.417       .  A
C194        C290   1.449       .  S
C195        C196   1.401       .  A
C195        H200   1.086       .  S
C196        C288   1.449       .  S
C196        C197   1.417       .  A
C197        C286   1.449       .  S
C197        C198   1.401       .  A
C198        H199   1.086       .  S
O201        C211   1.284       .  A
O201       Cu849   2.041   1_545  S
O202        C212   1.284       .  A
O202       Cu209   2.041   1_655  S
O203        C213   1.268       .  A
O203       Cu209   1.971       .  S
O204        C214   1.268       .  A
O204       Cu849   1.971   1_645  S
O205        C214   1.284       .  A
O205       Cu850   2.041   1_645  S
O206        C213   1.284       .  A
O206       Cu210   2.041       .  S
O207        C212   1.268       .  A
O207       Cu210   1.971   1_655  S
O208        C211   1.268       .  A
O208       Cu850   1.971   1_545  S
Cu209       O521   2.041       .  S
Cu209       O524   1.971   1_455  S
Cu209      Cu210   2.381       .  S
Cu210       O525   2.041   1_455  S
Cu210       O528   1.971       .  S
C211        C280   1.432       .  S
C212        C283   1.432       .  S
C213        C278   1.432       .  S
C214        C282   1.432       .  S
C215        C275   1.471       .  S
C215        C277   1.462       .  S
C215        C279   1.462       .  S
C215        C285   1.471       .  S
C216        C272   1.471       .  S
C216        C274   1.471       .  S
C216        C281   1.462       .  S
C216        C284   1.462       .  S
C217        C903   1.471       .  S
C217        C266   1.471   1_565  S
C217        C267   1.462   1_565  S
C217        C909   1.462       .  S
C218        C578   1.471       .  S
C218        C260   1.462       .  S
C218        C582   1.462       .  S
C218        C287   1.471       .  S
O219        C229   1.284       .  A
O219       Cu227   2.041       .  S
O220        C230   1.284       .  A
O220       Cu227   2.041       .  S
O221        C231   1.268       .  A
O221       Cu227   1.971       .  S
O222        C232   1.268       .  A
O222       Cu227   1.971       .  S
O223        C232   1.284       .  A
O223       Cu228   2.041       .  S
O224        C231   1.284       .  A
O224       Cu228   2.041       .  S
O225        C230   1.268       .  A
O225       Cu228   1.971       .  S
O226        C229   1.268       .  A
O226       Cu228   1.971       .  S
Cu227      Cu228   2.381       .  S
C229        C268   1.432       .  S
C230        C259   1.432       .  S
C231        C270   1.432       .  S
C232        C261   1.432       .  S
C233        C305   1.449       .  S
C233        C234   1.417       .  A
C234        C298   1.449       .  S
C235        C236   1.401       .  A
C235        H240   1.086   1_545  S
C236        C265   1.449       .  S
C236        C237   1.417       .  A
C237        C273   1.449       .  S
C237        C238   1.401       .  A
C238        H239   1.086       .  S
C241        C311   1.449       .  S
C241        C242   1.417       .  A
C241        C246   1.401       .  A
C242        C291   1.449       .  S
C242        C243   1.401       .  A
C243        C244   1.401       .  A
C243        H248   1.086   1_545  S
C244        C257   1.449       .  S
C244        C245   1.417       .  A
C245        C276   1.449       .  S
C245        C246   1.401       .  A
C246        H247   1.086       .  S
C249        C300   1.449       .  S
C249        C250   1.417       .  A
C249        C254   1.401       .  A
C250        C307   1.449       .  S
C250        C251   1.401       .  A
C251        C252   1.401       .  A
C251        H256   1.086       .  S
C252        C271   1.449       .  S
C252        C253   1.417       .  A
C253        C264   1.449       .  S
C253        C254   1.401       .  A
C254        H255   1.086       .  S
C257        C258   1.211       .  T
C258        C858   1.471   1_545  S
C259        C260   1.206       .  T
C261        C262   1.206       .  T
C262        C858   1.462   1_545  S
C263        C537   1.471       .  S
C263        C264   1.211       .  T
C265        C266   1.211       .  T
C267        C268   1.206       .  T
C269        C537   1.462       .  S
C269        C270   1.206       .  T
C271        C272   1.211       .  T
C273        C274   1.211       .  T
C275        C276   1.211       .  T
C277        C278   1.206       .  T
C279        C280   1.206       .  T
C281        C282   1.206       .  T
C283        C284   1.206       .  T
C285        C286   1.211       .  T
C287        C288   1.211       .  T
C289        C290   1.211       .  T
C291        C292   1.211       .  T
C292        C832   1.471   1_545  S
C293        C294   1.206       .  T
C295        C832   1.462   1_545  S
C295        C296   1.206       .  T
C297        C817   1.471   1_545  S
C297        C298   1.211       .  T
C299        C300   1.211       .  T
C301        C817   1.462   1_545  S
C301        C302   1.206       .  T
C303        C304   1.206       .  T
C305        C306   1.211       .  T
C307        C308   1.211       .  T
C309        C310   1.211       .  T
C311        C312   1.211       .  T
C313        C314   1.206       .  T
C315        C316   1.206       .  T
C317        C318   1.206       .  T
C319        C320   1.206       .  T
O321        C331   1.268       .  A
O322        C332   1.268       .  A
O322       Cu329   1.971       .  S
O323        C333   1.284       .  A
O323       Cu329   2.041   1_655  S
O324        C334   1.284       .  A
O325        C334   1.268       .  A
O325       Cu330   1.971       .  S
O326        C333   1.268       .  A
O326       Cu650   1.971   1_655  S
O327        C332   1.284       .  A
O327       Cu650   2.041       .  S
O328        C331   1.284       .  A
O328       Cu330   2.041   1_655  S
Cu329       O641   1.971   1_455  S
Cu329       O644   2.041       .  S
Cu329      Cu650   2.381       .  S
C331        C478   1.432       .  S
C332        C473   1.432       .  S
C333        C479   1.432       .  S
C334        C476   1.432       .  S
C335        C470   1.471       .  S
C335        C472   1.471       .  S
C335        C474   1.462       .  S
C335        C475   1.462       .  S
C336        C466   1.471       .  S
C336        C468   1.471       .  S
C336        C477   1.462       .  S
C336        C480   1.462       .  S
C337        C777   1.471       .  S
C337        C459   1.471       .  S
C337        C781   1.462       .  S
C337        C463   1.462       .  S
O338        C348   1.268       .  A
O338       Cu346   1.971       .  S
O339        C349   1.268       .  A
O339       Cu346   1.971       .  S
O340        C350   1.284       .  A
O340       Cu346   2.041       .  S
O341        C351   1.284       .  A
O341       Cu346   2.041       .  S
O342        C351   1.268       .  A
O342       Cu347   1.971       .  S
O343        C350   1.268       .  A
O343       Cu347   1.971       .  S
O344        C349   1.284       .  A
O344       Cu347   2.041       .  S
O345        C348   1.284       .  A
O345       Cu347   2.041       .  S
Cu346      Cu347   2.381       .  S
C348        C464   1.432       .  S
C349        C456   1.432       .  S
C350        C462   1.432       .  S
C351        C453   1.432       .  S
C352        C449   1.471       .  S
C352        C772   1.471       .  S
C352        C454   1.462       .  S
C352        C775   1.462       .  S
C353        C469   1.449       .  S
C353        C354   1.417       .  A
C353        C518   1.401       .  A
C354        C450   1.449       .  S
C354        C515   1.401       .  A
C355        C514   1.401   1_554  A
C355        C356   1.401       .  A
C355        H360   1.086       .  S
C356        C448   1.449       .  S
C356        C357   1.417       .  A
C357        C446   1.449       .  S
C357        C358   1.401       .  A
C358        C513   1.401   1_554  A
C358        H359   1.086       .  S
O361        C371   1.284       .  A
O362        C372   1.284       .  A
O362       Cu369   2.041   1_655  S
O363        C373   1.268       .  A
O363       Cu369   1.971       .  S
O364        C374   1.268       .  A
O365        C374   1.284       .  A
O366        C373   1.284       .  A
O366       Cu370   2.041       .  S
O367        C372   1.268       .  A
O367       Cu370   1.971   1_655  S
O368        C371   1.268       .  A
Cu369       O681   2.041       .  S
Cu369       O684   1.971   1_455  S
Cu369      Cu370   2.381       .  S
Cu370       O685   2.041   1_455  S
Cu370       O688   1.971       .  S
C371        C440   1.432       .  S
C372        C443   1.432       .  S
C373        C438   1.432       .  S
C374        C442   1.432       .  S
C375        C435   1.471       .  S
C375        C437   1.462       .  S
C375        C439   1.462       .  S
C375        C445   1.471       .  S
C376        C432   1.471       .  S
C376        C434   1.471       .  S
C376        C441   1.462       .  S
C376        C444   1.462       .  S
C377        C426   1.471       .  S
C377        C427   1.462       .  S
C378        C738   1.471       .  S
C378        C420   1.462       .  S
C378        C742   1.462       .  S
C378        C447   1.471       .  S
O379        C389   1.284       .  A
O379       Cu387   2.041       .  S
O380        C390   1.284       .  A
O380       Cu387   2.041       .  S
O381        C391   1.268       .  A
O381       Cu387   1.971       .  S
O382        C392   1.268       .  A
O382       Cu387   1.971       .  S
O383        C392   1.284       .  A
O383       Cu388   2.041       .  S
O384        C391   1.284       .  A
O384       Cu388   2.041       .  S
O385        C390   1.268       .  A
O385       Cu388   1.971       .  S
O386        C389   1.268       .  A
O386       Cu388   1.971       .  S
Cu387      Cu388   2.381       .  S
C389        C428   1.432       .  S
C390        C419   1.432       .  S
C391        C430   1.432       .  S
C392        C421   1.432       .  S
C393        C465   1.449       .  S
C393        C394   1.417       .  A
C393        C558   1.401       .  A
C394        C458   1.449       .  S
C394        C555   1.401       .  A
C395        C554   1.401   1_554  A
C395        C396   1.401       .  A
C395        H400   1.086       .  S
C396        C425   1.449       .  S
C396        C397   1.417       .  A
C397        C433   1.449       .  S
C397        C398   1.401       .  A
C398        C553   1.401   1_554  A
C398        H399   1.086       .  S
C401        C471   1.449       .  S
C401        C402   1.417       .  A
C401        C406   1.401       .  A
C402        C451   1.449       .  S
C402        C403   1.401       .  A
C403        C404   1.401       .  A
C403        H408   1.086       .  S
C404        C417   1.449       .  S
C404        C405   1.417       .  A
C405        C436   1.449       .  S
C405        C406   1.401       .  A
C406        H407   1.086       .  S
C409        C460   1.449       .  S
C409        C410   1.417       .  A
C409        C414   1.401       .  A
C410        C467   1.449       .  S
C410        C411   1.401       .  A
C411        C412   1.401       .  A
C411        H416   1.086       .  S
C412        C431   1.449       .  S
C412        C413   1.417       .  A
C413        C424   1.449       .  S
C413        C414   1.401       .  A
C414        H415   1.086       .  S
C417        C418   1.211       .  T
C419        C420   1.206       .  T
C421        C422   1.206       .  T
C423        C697   1.471       .  S
C423        C424   1.211       .  T
C425        C426   1.211       .  T
C427        C428   1.206       .  T
C429        C697   1.462       .  S
C429        C430   1.206       .  T
C431        C432   1.211       .  T
C433        C434   1.211       .  T
C435        C436   1.211       .  T
C437        C438   1.206       .  T
C439        C440   1.206       .  T
C441        C442   1.206       .  T
C443        C444   1.206       .  T
C445        C446   1.211       .  T
C447        C448   1.211       .  T
C449        C450   1.211       .  T
C451        C452   1.211       .  T
C453        C454   1.206       .  T
C455        C456   1.206       .  T
C457        C458   1.211       .  T
C459        C460   1.211       .  T
C461        C462   1.206       .  T
C463        C464   1.206       .  T
C465        C466   1.211       .  T
C467        C468   1.211       .  T
C469        C470   1.211       .  T
C471        C472   1.211       .  T
C473        C474   1.206       .  T
C475        C476   1.206       .  T
C477        C478   1.206       .  T
C479        C480   1.206       .  T
O481        C491   1.268       .  A
O482        C492   1.268       .  A
O482       Cu489   1.971       .  S
O483        C493   1.284       .  A
O483       Cu489   2.041   1_655  S
O484        C494   1.284       .  A
O485        C494   1.268       .  A
O485       Cu490   1.971       .  S
O486        C493   1.268       .  A
O486       Cu810   1.971   1_655  S
O487        C492   1.284       .  A
O487       Cu810   2.041       .  S
O488        C491   1.284       .  A
O488       Cu490   2.041   1_655  S
Cu489       O801   1.971   1_455  S
Cu489       O804   2.041       .  S
Cu489      Cu810   2.381       .  S
C491        C638   1.432       .  S
C492        C633   1.432       .  S
C493        C639   1.432       .  S
C494        C636   1.432       .  S
C495        C630   1.471       .  S
C495        C632   1.471       .  S
C495        C634   1.462       .  S
C495        C635   1.462       .  S
C496        C626   1.471       .  S
C496        C628   1.471       .  S
C496        C637   1.462       .  S
C496        C640   1.462       .  S
C497        C937   1.471       .  S
C497        C619   1.471       .  S
C497        C941   1.462       .  S
C497        C623   1.462       .  S
O498        C508   1.268       .  A
O498       Cu506   1.971       .  S
O499        C509   1.268       .  A
O499       Cu506   1.971       .  S
O500        C510   1.284       .  A
O500       Cu506   2.041       .  S
O501        C511   1.284       .  A
O501       Cu506   2.041       .  S
O502        C511   1.268       .  A
O502       Cu507   1.971       .  S
O503        C510   1.268       .  A
O503       Cu507   1.971       .  S
O504        C509   1.284       .  A
O504       Cu507   2.041       .  S
O505        C508   1.284       .  A
O505       Cu507   2.041       .  S
Cu506      Cu507   2.381       .  S
C508        C624   1.432       .  S
C509        C616   1.432       .  S
C510        C622   1.432       .  S
C511        C613   1.432       .  S
C512        C609   1.471       .  S
C512        C932   1.471       .  S
C512        C614   1.462       .  S
C512        C935   1.462       .  S
C513        C629   1.449       .  S
C513        C514   1.417       .  A
C514        C610   1.449       .  S
C515        C516   1.401       .  A
C515        H520   1.086       .  S
C516        C608   1.449       .  S
C516        C517   1.417       .  A
C517        C606   1.449       .  S
C517        C518   1.401       .  A
C518        H519   1.086       .  S
O521        C531   1.284       .  A
O522        C532   1.284       .  A
O522       Cu529   2.041   1_655  S
O523        C533   1.268       .  A
O523       Cu529   1.971       .  S
O524        C534   1.268       .  A
O525        C534   1.284       .  A
O526        C533   1.284       .  A
O526       Cu530   2.041       .  S
O527        C532   1.268       .  A
O527       Cu530   1.971   1_655  S
O528        C531   1.268       .  A
Cu529       O841   2.041       .  S
Cu529       O844   1.971   1_455  S
Cu529      Cu530   2.381       .  S
Cu530       O845   2.041   1_455  S
Cu530       O848   1.971       .  S
C531        C600   1.432       .  S
C532        C603   1.432       .  S
C533        C598   1.432       .  S
C534        C602   1.432       .  S
C535        C595   1.471       .  S
C535        C597   1.462       .  S
C535        C599   1.462       .  S
C535        C605   1.471       .  S
C536        C592   1.471       .  S
C536        C594   1.471       .  S
C536        C601   1.462       .  S
C536        C604   1.462       .  S
C537        C586   1.471       .  S
C537        C587   1.462       .  S
C538        C898   1.471       .  S
C538        C580   1.462       .  S
C538        C902   1.462       .  S
C538        C607   1.471       .  S
O539        C549   1.284       .  A
O539       Cu547   2.041       .  S
O540        C550   1.284       .  A
O540       Cu547   2.041       .  S
O541        C551   1.268       .  A
O541       Cu547   1.971       .  S
O542        C552   1.268       .  A
O542       Cu547   1.971       .  S
O543        C552   1.284       .  A
O543       Cu548   2.041       .  S
O544        C551   1.284       .  A
O544       Cu548   2.041       .  S
O545        C550   1.268       .  A
O545       Cu548   1.971       .  S
O546        C549   1.268       .  A
O546       Cu548   1.971       .  S
Cu547      Cu548   2.381       .  S
C549        C588   1.432       .  S
C550        C579   1.432       .  S
C551        C590   1.432       .  S
C552        C581   1.432       .  S
C553        C625   1.449       .  S
C553        C554   1.417       .  A
C554        C618   1.449       .  S
C555        C556   1.401       .  A
C555        H560   1.086       .  S
C556        C585   1.449       .  S
C556        C557   1.417       .  A
C557        C593   1.449       .  S
C557        C558   1.401       .  A
C558        H559   1.086       .  S
C561        C631   1.449       .  S
C561        C562   1.417       .  A
C561        C566   1.401       .  A
C562        C611   1.449       .  S
C562        C563   1.401       .  A
C563        C564   1.401       .  A
C563        H568   1.086       .  S
C564        C577   1.449       .  S
C564        C565   1.417       .  A
C565        C596   1.449       .  S
C565        C566   1.401       .  A
C566        H567   1.086       .  S
C569        C620   1.449       .  S
C569        C570   1.417       .  A
C569        C574   1.401       .  A
C570        C627   1.449       .  S
C570        C571   1.401       .  A
C571        C572   1.401       .  A
C571        H576   1.086       .  S
C572        C591   1.449       .  S
C572        C573   1.417       .  A
C573        C584   1.449       .  S
C573        C574   1.401       .  A
C574        H575   1.086       .  S
C577        C578   1.211       .  T
C579        C580   1.206       .  T
C581        C582   1.206       .  T
C583        C857   1.471       .  S
C583        C584   1.211       .  T
C585        C586   1.211       .  T
C587        C588   1.206       .  T
C589        C857   1.462       .  S
C589        C590   1.206       .  T
C591        C592   1.211       .  T
C593        C594   1.211       .  T
C595        C596   1.211       .  T
C597        C598   1.206       .  T
C599        C600   1.206       .  T
C601        C602   1.206       .  T
C603        C604   1.206       .  T
C605        C606   1.211       .  T
C607        C608   1.211       .  T
C609        C610   1.211       .  T
C611        C612   1.211       .  T
C613        C614   1.206       .  T
C615        C616   1.206       .  T
C617        C618   1.211       .  T
C619        C620   1.211       .  T
C621        C622   1.206       .  T
C623        C624   1.206       .  T
C625        C626   1.211       .  T
C627        C628   1.211       .  T
C629        C630   1.211       .  T
C631        C632   1.211       .  T
C633        C634   1.206       .  T
C635        C636   1.206       .  T
C637        C638   1.206       .  T
C639        C640   1.206       .  T
O641        C651   1.268       .  A
O642        C652   1.268       .  A
O642       Cu649   1.971       .  S
O643        C653   1.284       .  A
O643       Cu649   2.041   1_655  S
O644        C654   1.284       .  A
O645        C654   1.268       .  A
O645       Cu650   1.971       .  S
O646        C653   1.268       .  A
O647        C652   1.284       .  A
O648        C651   1.284       .  A
O648       Cu650   2.041   1_655  S
C651        C798   1.432       .  S
C652        C793   1.432       .  S
C653        C799   1.432       .  S
C654        C796   1.432       .  S
C655        C790   1.471       .  S
C655        C792   1.471       .  S
C655        C794   1.462       .  S
C655        C795   1.462       .  S
C656        C786   1.471       .  S
C656        C788   1.471       .  S
C656        C797   1.462       .  S
C656        C800   1.462       .  S
C657        C779   1.471       .  S
C657        C783   1.462       .  S
O658        C668   1.268       .  A
O658       Cu666   1.971       .  S
O659        C669   1.268       .  A
O659       Cu666   1.971       .  S
O660        C670   1.284       .  A
O660       Cu666   2.041       .  S
O661        C671   1.284       .  A
O661       Cu666   2.041       .  S
O662        C671   1.268       .  A
O662       Cu667   1.971       .  S
O663        C670   1.268       .  A
O663       Cu667   1.971       .  S
O664        C669   1.284       .  A
O664       Cu667   2.041       .  S
O665        C668   1.284       .  A
O665       Cu667   2.041       .  S
Cu666      Cu667   2.381       .  S
C668        C784   1.432       .  S
C669        C776   1.432       .  S
C670        C782   1.432       .  S
C671        C773   1.432       .  S
C672        C769   1.471       .  S
C672        C774   1.462       .  S
C673        C789   1.449       .  S
C673        C674   1.417       .  A
C673        C838   1.401       .  A
C674        C770   1.449       .  S
C674        C835   1.401       .  A
C675        C834   1.401   1_554  A
C675        C676   1.401       .  A
C675        H680   1.086   1_565  S
C676        C768   1.449       .  S
C676        C677   1.417       .  A
C677        C766   1.449       .  S
C677        C678   1.401       .  A
C678        C833   1.401   1_554  A
C678        H679   1.086       .  S
O681        C691   1.284       .  A
O682        C692   1.284       .  A
O682       Cu689   2.041   1_655  S
O683        C693   1.268       .  A
O683       Cu689   1.971       .  S
O684        C694   1.268       .  A
O685        C694   1.284       .  A
O686        C693   1.284       .  A
O686       Cu690   2.041       .  S
O687        C692   1.268       .  A
O687       Cu690   1.971   1_655  S
O688        C691   1.268       .  A
Cu689      Cu690   2.381       .  S
C691        C760   1.432       .  S
C692        C763   1.432       .  S
C693        C758   1.432       .  S
C694        C762   1.432       .  S
C695        C755   1.471       .  S
C695        C757   1.462       .  S
C695        C759   1.462       .  S
C695        C765   1.471       .  S
C696        C752   1.471       .  S
C696        C754   1.471       .  S
C696        C761   1.462       .  S
C696        C764   1.462       .  S
C697        C746   1.471       .  S
C697        C747   1.462       .  S
C698        C740   1.462       .  S
C698        C767   1.471       .  S
O699        C709   1.284       .  A
O699       Cu707   2.041       .  S
O700        C710   1.284       .  A
O700       Cu707   2.041       .  S
O701        C711   1.268       .  A
O701       Cu707   1.971       .  S
O702        C712   1.268       .  A
O702       Cu707   1.971       .  S
O703        C712   1.284       .  A
O703       Cu708   2.041       .  S
O704        C711   1.284       .  A
O704       Cu708   2.041       .  S
O705        C710   1.268       .  A
O705       Cu708   1.971       .  S
O706        C709   1.268       .  A
O706       Cu708   1.971       .  S
Cu707      Cu708   2.381       .  S
C709        C748   1.432       .  S
C710        C739   1.432       .  S
C711        C750   1.432       .  S
C712        C741   1.432       .  S
C713        C785   1.449       .  S
C713        C714   1.417       .  A
C713        C878   1.401       .  A
C714        C778   1.449       .  S
C714        C875   1.401       .  A
C715        C874   1.401   1_554  A
C715        C716   1.401       .  A
C715        H720   1.086       .  S
C716        C745   1.449       .  S
C716        C717   1.417       .  A
C717        C753   1.449       .  S
C717        C718   1.401       .  A
C718        C873   1.401   1_554  A
C718        H719   1.086       .  S
C721        C791   1.449       .  S
C721        C722   1.417       .  A
C721        C726   1.401       .  A
C722        C771   1.449       .  S
C722        C723   1.401       .  A
C723        C724   1.401       .  A
C723        H728   1.086       .  S
C724        C737   1.449       .  S
C724        C725   1.417       .  A
C725        C756   1.449       .  S
C725        C726   1.401       .  A
C726        H727   1.086       .  S
C729        C780   1.449       .  S
C729        C730   1.417       .  A
C729        C734   1.401       .  A
C730        C787   1.449       .  S
C730        C731   1.401       .  A
C731        C732   1.401       .  A
C731        H736   1.086       .  S
C732        C751   1.449       .  S
C732        C733   1.417       .  A
C733        C744   1.449       .  S
C733        C734   1.401       .  A
C734        H735   1.086   1_565  S
C737        C738   1.211       .  T
C739        C740   1.206       .  T
C741        C742   1.206       .  T
C743        C744   1.211       .  T
C745        C746   1.211       .  T
C747        C748   1.206       .  T
C749        C750   1.206       .  T
C751        C752   1.211       .  T
C753        C754   1.211       .  T
C755        C756   1.211       .  T
C757        C758   1.206       .  T
C759        C760   1.206       .  T
C761        C762   1.206       .  T
C763        C764   1.206       .  T
C765        C766   1.211       .  T
C767        C768   1.211       .  T
C769        C770   1.211       .  T
C771        C772   1.211       .  T
C773        C774   1.206       .  T
C775        C776   1.206       .  T
C777        C778   1.211       .  T
C779        C780   1.211       .  T
C781        C782   1.206       .  T
C783        C784   1.206       .  T
C785        C786   1.211       .  T
C787        C788   1.211       .  T
C789        C790   1.211       .  T
C791        C792   1.211       .  T
C793        C794   1.206       .  T
C795        C796   1.206       .  T
C797        C798   1.206       .  T
C799        C800   1.206       .  T
O801        C811   1.268       .  A
O802        C812   1.268       .  A
O802       Cu809   1.971       .  S
O803        C813   1.284       .  A
O803       Cu809   2.041   1_655  S
O804        C814   1.284       .  A
O805        C814   1.268       .  A
O805       Cu810   1.971       .  S
O806        C813   1.268       .  A
O807        C812   1.284       .  A
O808        C811   1.284       .  A
O808       Cu810   2.041   1_655  S
C811        C958   1.432       .  S
C812        C953   1.432       .  S
C813        C959   1.432       .  S
C814        C956   1.432       .  S
C815        C950   1.471       .  S
C815        C952   1.471       .  S
C815        C954   1.462       .  S
C815        C955   1.462       .  S
C816        C946   1.471       .  S
C816        C948   1.471       .  S
C816        C957   1.462       .  S
C816        C960   1.462       .  S
C817        C939   1.471       .  S
C817        C943   1.462       .  S
O818        C828   1.268       .  A
O818       Cu826   1.971       .  S
O819        C829   1.268       .  A
O819       Cu826   1.971       .  S
O820        C830   1.284       .  A
O820       Cu826   2.041       .  S
O821        C831   1.284       .  A
O821       Cu826   2.041       .  S
O822        C831   1.268       .  A
O822       Cu827   1.971       .  S
O823        C830   1.268       .  A
O823       Cu827   1.971       .  S
O824        C829   1.284       .  A
O824       Cu827   2.041       .  S
O825        C828   1.284       .  A
O825       Cu827   2.041       .  S
Cu826      Cu827   2.381       .  S
C828        C944   1.432       .  S
C829        C936   1.432       .  S
C830        C942   1.432       .  S
C831        C933   1.432       .  S
C832        C929   1.471       .  S
C832        C934   1.462       .  S
C833        C949   1.449       .  S
C833        C834   1.417       .  A
C834        C930   1.449       .  S
C835        C836   1.401       .  A
C835        H840   1.086   1_565  S
C836        C928   1.449       .  S
C836        C837   1.417       .  A
C837        C926   1.449       .  S
C837        C838   1.401       .  A
C838        H839   1.086       .  S
O841        C851   1.284       .  A
O842        C852   1.284       .  A
O842       Cu849   2.041   1_655  S
O843        C853   1.268       .  A
O843       Cu849   1.971       .  S
O844        C854   1.268       .  A
O845        C854   1.284       .  A
O846        C853   1.284       .  A
O846       Cu850   2.041       .  S
O847        C852   1.268       .  A
O847       Cu850   1.971   1_655  S
O848        C851   1.268       .  A
Cu849      Cu850   2.381       .  S
C851        C920   1.432       .  S
C852        C923   1.432       .  S
C853        C918   1.432       .  S
C854        C922   1.432       .  S
C855        C915   1.471       .  S
C855        C917   1.462       .  S
C855        C919   1.462       .  S
C855        C925   1.471       .  S
C856        C912   1.471       .  S
C856        C914   1.471       .  S
C856        C921   1.462       .  S
C856        C924   1.462       .  S
C857        C906   1.471       .  S
C857        C907   1.462       .  S
C858        C900   1.462       .  S
C858        C927   1.471       .  S
O859        C869   1.284       .  A
O859       Cu867   2.041       .  S
O860        C870   1.284       .  A
O860       Cu867   2.041       .  S
O861        C871   1.268       .  A
O861       Cu867   1.971       .  S
O862        C872   1.268       .  A
O862       Cu867   1.971       .  S
O863        C872   1.284       .  A
O863       Cu868   2.041       .  S
O864        C871   1.284       .  A
O864       Cu868   2.041       .  S
O865        C870   1.268       .  A
O865       Cu868   1.971       .  S
O866        C869   1.268       .  A
O866       Cu868   1.971       .  S
Cu867      Cu868   2.381       .  S
C869        C908   1.432       .  S
C870        C899   1.432       .  S
C871        C910   1.432       .  S
C872        C901   1.432       .  S
C873        C945   1.449       .  S
C873        C874   1.417       .  A
C874        C938   1.449       .  S
C875        C876   1.401       .  A
C875        H880   1.086       .  S
C876        C905   1.449       .  S
C876        C877   1.417       .  A
C877        C913   1.449       .  S
C877        C878   1.401       .  A
C878        H879   1.086       .  S
C881        C951   1.449       .  S
C881        C882   1.417       .  A
C881        C886   1.401       .  A
C882        C931   1.449       .  S
C882        C883   1.401       .  A
C883        C884   1.401       .  A
C883        H888   1.086       .  S
C884        C897   1.449       .  S
C884        C885   1.417       .  A
C885        C916   1.449       .  S
C885        C886   1.401       .  A
C886        H887   1.086       .  S
C889        C940   1.449       .  S
C889        C890   1.417       .  A
C889        C894   1.401       .  A
C890        C947   1.449       .  S
C890        C891   1.401       .  A
C891        C892   1.401       .  A
C891        H896   1.086       .  S
C892        C911   1.449       .  S
C892        C893   1.417       .  A
C893        C904   1.449       .  S
C893        C894   1.401       .  A
C894        H895   1.086   1_565  S
C897        C898   1.211       .  T
C899        C900   1.206       .  T
C901        C902   1.206       .  T
C903        C904   1.211       .  T
C905        C906   1.211       .  T
C907        C908   1.206       .  T
C909        C910   1.206       .  T
C911        C912   1.211       .  T
C913        C914   1.211       .  T
C915        C916   1.211       .  T
C917        C918   1.206       .  T
C919        C920   1.206       .  T
C921        C922   1.206       .  T
C923        C924   1.206       .  T
C925        C926   1.211       .  T
C927        C928   1.211       .  T
C929        C930   1.211       .  T
C931        C932   1.211       .  T
C933        C934   1.206       .  T
C935        C936   1.206       .  T
C937        C938   1.211       .  T
C939        C940   1.211       .  T
C941        C942   1.206       .  T
C943        C944   1.206       .  T
C945        C946   1.211       .  T
C947        C948   1.211       .  T
C949        C950   1.211       .  T
C951        C952   1.211       .  T
C953        C954   1.206       .  T
C955        C956   1.206       .  T
C957        C958   1.206       .  T
C959        C960   1.206       .  T
