geometry optimzed in LAMMPS
_audit_creation_date              2020-11-30 
_audit_creation_method            'lammps2cif' 
_symmetry_space_group_name_H-M    'P1' 
_symmetry_Int_Tables_number       1 
_symmetry_cell_setting            triclinic 
loop_ 
_symmetry_equiv_pos_as_xyz 
  x,y,z 
_cell_length_a                    84.15252326 
_cell_length_b                    84.16955591345506 
_cell_length_c                    84.19610125982207 
_cell_angle_alpha                 89.9473379171445 
_cell_angle_beta                  90.04379998774785 
_cell_angle_gamma                 90.08345370931015 
loop_ 
_atom_site_label 
_atom_site_type_symbol 
_atom_site_fract_x 
_atom_site_fract_y 
_atom_site_fract_z 
_atom_site_charge 
N1          N  0.72587868  0.10955698  0.68697380    -0.27400
N2          N  0.71804389  0.12290025  0.68962719    -0.35300
C3          C  0.72455743  0.13455813  0.68081235     0.00900
C4          C  0.73721517  0.12825814  0.67243331     0.06900
C5          C  0.73763610  0.11237267  0.67655030    -0.06200
H6          H  0.72051475  0.14675349  0.68066118     0.07600
H7          H  0.74569650  0.10343252  0.67207914     0.08800
Cu8        Cu  0.69931407  0.12467121  0.70563586     0.44200
Cu9        Cu  0.71992860  0.08789981  0.69692414     0.42000
Cu10       Cu  0.68708263  0.08763473  0.72420044     0.43900
N11         N  0.68280916  0.12315564  0.72395986    -0.34800
N12         N  0.67843849  0.10964410  0.73069165    -0.29100
C13         C  0.66826279  0.11273890  0.74258289    -0.05200
C14         C  0.66626651  0.12900693  0.74357320     0.07000
C15         C  0.67551628  0.13522538  0.73144175     0.00800
H16         H  0.66300434  0.10380684  0.75019753     0.08500
H17         H  0.67687085  0.14760240  0.72825126     0.07600
N18         N  0.69821811  0.06725535  0.71634622    -0.36300
N19         N  0.71039768  0.06736911  0.70646332    -0.28400
C20         C  0.71470850  0.05232647  0.70338103    -0.03700
C21         C  0.70462687  0.04224481  0.71157942     0.04900
C22         C  0.69445061  0.05213816  0.71985363     0.03000
H23         H  0.72425015  0.04897307  0.69546308     0.08100
H24         H  0.68506367  0.04867469  0.72791475     0.07000
N25         N  0.60264229  0.22650870  0.83855199    -0.27400
N26         N  0.61580686  0.21849782  0.83567957    -0.35300
C27         C  0.62790404  0.22521201  0.84358774     0.00900
C28         C  0.62214695  0.23821676  0.85174274     0.06900
C29         C  0.60601464  0.23858441  0.84849208    -0.06200
H30         H  0.64006164  0.22107553  0.84317081     0.07600
H31         H  0.59751041  0.24731312  0.85254072     0.08800
Cu32       Cu  0.61711676  0.19957788  0.82025691     0.44200
Cu33       Cu  0.58128063  0.22080608  0.82770483     0.42000
Cu34       Cu  0.58233224  0.18853315  0.79802018     0.43900
N35         N  0.61707133  0.18200264  0.80326274    -0.34800
N36         N  0.60449229  0.17798453  0.79477448    -0.29100
C37         C  0.60887237  0.16699042  0.78401974    -0.05200
C38         C  0.62497242  0.16388120  0.78596577     0.07000
C39         C  0.62971270  0.17372391  0.79824003     0.00800
H40         H  0.60108490  0.16226561  0.77495563     0.08500
H41         H  0.64161650  0.17515955  0.80289061     0.07600
N42         N  0.56185560  0.20058144  0.80500331    -0.36300
N43         N  0.56161168  0.21214559  0.81564811    -0.28400
C44         C  0.54649748  0.21660268  0.81814496    -0.03700
C45         C  0.53667281  0.20728337  0.80883996     0.04900
C46         C  0.54682589  0.19741764  0.80048226     0.03000
H47         H  0.54294131  0.22576312  0.82640577     0.08100
H48         H  0.54347870  0.18814145  0.79223998     0.07000
N49         N  0.83357452  0.22243126  0.60768588    -0.27400
N50         N  0.83025122  0.21481401  0.62098647    -0.35300
C51         C  0.83845343  0.22141084  0.63297942     0.00900
C52         C  0.84755905  0.23369113  0.62689806     0.06900
C53         C  0.84403229  0.23410733  0.61083326    -0.06200
H54         H  0.83743418  0.21783646  0.64527913     0.07600
H55         H  0.84865783  0.24233468  0.60209906     0.08800
Cu56       Cu  0.81411316  0.19637941  0.62217461     0.44200
Cu57       Cu  0.82334968  0.21643537  0.58616762     0.42000
Cu58       Cu  0.79359254  0.18460664  0.58601443     0.43900
N59         N  0.79615954  0.17967659  0.62142983    -0.34800
N60         N  0.78835386  0.17548327  0.60845451    -0.29100
C61         C  0.77679725  0.16515242  0.61252132    -0.05200
C62         C  0.77735124  0.16288996  0.62884194     0.07000
C63         C  0.78987632  0.17215888  0.63400870     0.00800
H64         H  0.76858696  0.15977559  0.60421928     0.08500
H65         H  0.79380172  0.17376627  0.64614326     0.07600
N66         N  0.80225819  0.19571071  0.56561516    -0.36300
N67         N  0.81296726  0.20723647  0.56588074    -0.28400
C68         C  0.81696509  0.21104368  0.55092297    -0.03700
C69         C  0.80856882  0.20135231  0.54067639     0.04900
C70         C  0.79915685  0.19193215  0.55036864     0.03000
H71         H  0.82572322  0.21992383  0.54777800     0.08100
H72         H  0.79123129  0.18251348  0.54663987     0.07000
N73         N  0.67609660  0.29042697  0.90845192    -0.27400
N74         N  0.67870231  0.29866319  0.89535180    -0.35300
C75         C  0.66935521  0.29314328  0.88370327     0.00900
C76         C  0.66028624  0.28081401  0.88967036     0.06900
C77         C  0.66493693  0.27933543  0.90542640    -0.06200
H78         H  0.66951840  0.29750057  0.87160982     0.07600
H79         H  0.66108593  0.27042024  0.91384880     0.08800
Cu80       Cu  0.69565763  0.31613144  0.89317757     0.44200
Cu81       Cu  0.68859556  0.29462750  0.92935677     0.42000
Cu82       Cu  0.71887834  0.32611235  0.92738716     0.43900
N83         N  0.71382024  0.33247955  0.89267841    -0.34800
N84         N  0.72247925  0.33624292  0.90520998    -0.29100
C85         C  0.73358607  0.34687787  0.90081673    -0.05200
C86         C  0.73169119  0.34999926  0.88475957     0.07000
C87         C  0.71914452  0.34053002  0.87998722     0.00800
H88         H  0.74267884  0.35154402  0.90861617     0.08500
H89         H  0.71434383  0.33941322  0.86811429     0.07600
N90         N  0.71252501  0.31415067  0.94799908    -0.36300
N91         N  0.70184906  0.30260612  0.94865137    -0.28400
C92         C  0.70035729  0.29779094  0.96381197    -0.03700
C93         C  0.71059297  0.30666996  0.97314904     0.04900
C94         C  0.71798821  0.31703362  0.96274190     0.03000
H95         H  0.69192172  0.28895013  0.96782645     0.08100
H96         H  0.72652938  0.32618556  0.96570324     0.07000
N97         N  0.90356184  0.28802269  0.67903271    -0.27400
N98         N  0.89086465  0.29713081  0.68054567    -0.35300
C99         C  0.87928149  0.29156428  0.67104323     0.00900
C100        C  0.88497766  0.27835080  0.66312561     0.06900
C101        C  0.90036313  0.27639236  0.66858166    -0.06200
H102        H  0.86732645  0.29625517  0.67063883     0.07600
H103        H  0.90848082  0.26691421  0.66554603     0.08800
Cu104      Cu  0.88912371  0.31560178  0.69668562     0.44200
Cu105      Cu  0.92436215  0.29102146  0.69189223     0.42000
Cu106      Cu  0.92373971  0.32238301  0.72103343     0.43900
N107        N  0.88982122  0.33194427  0.71504848    -0.34800
N108        N  0.90249105  0.33433264  0.72401624    -0.29100
C109        C  0.89887500  0.34483540  0.73546041    -0.05200
C110        C  0.88319991  0.34940047  0.73353838     0.07000
C111        C  0.87779328  0.34087966  0.72054670     0.00800
H112        H  0.90696044  0.34858997  0.74472780     0.08500
H113        H  0.86581797  0.34059270  0.71587956     0.07600
N114        N  0.94356161  0.30869336  0.71627276    -0.36300
N115        N  0.94382626  0.29708363  0.70572590    -0.28400
C116        C  0.95867276  0.29123934  0.70484108    -0.03700
C117        C  0.96819134  0.29955094  0.71540015     0.04900
C118        C  0.95820163  0.31058224  0.72234428     0.03000
H119        H  0.96243785  0.28230857  0.69642074     0.08100
H120        H  0.96147110  0.31973862  0.73075050     0.07000
N121        N  0.78510621  0.40670392  0.83200125    -0.27400
N122        N  0.79301857  0.39359267  0.82864049    -0.35300
C123        C  0.78611898  0.38124424  0.83601929     0.00900
C124        C  0.77306302  0.38679501  0.84427310     0.06900
C125        C  0.77290437  0.40303764  0.84164494    -0.06200
H126        H  0.79037069  0.36914038  0.83542051     0.07600
H127        H  0.76440791  0.41152240  0.84619700     0.08800
Cu128      Cu  0.81210101  0.39280662  0.81333924     0.44200
Cu129      Cu  0.79128837  0.42875575  0.82296218     0.42000
Cu130      Cu  0.82193381  0.42900601  0.79238297     0.43900
N131        N  0.82862532  0.39395729  0.79531772    -0.34800
N132        N  0.83195897  0.40701998  0.78725026    -0.29100
C133        C  0.84241997  0.40341845  0.77572160    -0.05200
C134        C  0.84595468  0.38737746  0.77677125     0.07000
C135        C  0.83687084  0.38175273  0.78923300     0.00800
H136        H  0.84703403  0.41181914  0.76714815     0.08500
H137        H  0.83584149  0.36957541  0.79322729     0.07600
N138        N  0.81130857  0.44938831  0.80143695    -0.36300
N139        N  0.80037804  0.44923430  0.81271899    -0.28400
C140        C  0.79693235  0.46427203  0.81681786    -0.03700
C141        C  0.80595650  0.47442244  0.80755600     0.04900
C142        C  0.81500583  0.46457149  0.79799786     0.03000
H143        H  0.78872038  0.46757087  0.82612642     0.08100
H144        H  0.82415623  0.46814232  0.78970768     0.07000
N145        N  0.72036857  0.67325923  0.91540309    -0.27400
N146        N  0.71401810  0.67823539  0.90192389    -0.35300
C147        C  0.72199704  0.67171855  0.88972825     0.00900
C148        C  0.73408645  0.66234831  0.89579999     0.06900
C149        C  0.73254733  0.66346220  0.91213697    -0.06200
H150        H  0.71947727  0.67400052  0.87733168     0.07600
H151        H  0.73969933  0.65757726  0.92104321     0.08800
Cu152      Cu  0.69566817  0.69466713  0.90067305     0.44200
Cu153      Cu  0.71264506  0.68041671  0.93765824     0.42000
Cu154      Cu  0.68370483  0.71181720  0.93831299     0.43900
N155        N  0.68000006  0.71357887  0.90278529    -0.34800
N156        N  0.67626092  0.72019195  0.91652130    -0.29100
C157        C  0.66702436  0.73291479  0.91386731    -0.05200
C158        C  0.66460698  0.73422665  0.89771160     0.07000
C159        C  0.67304140  0.72184131  0.89100016     0.00800
H160        H  0.66246415  0.74067565  0.92302613     0.08500
H161        H  0.67449215  0.71936806  0.87847806     0.07600
N162        N  0.69190787  0.70066595  0.95853548    -0.36300
N163        N  0.70269512  0.68927862  0.95835245    -0.28400
C164        C  0.70591613  0.68494324  0.97338208    -0.03700
C165        C  0.69651307  0.69387388  0.98346672     0.04900
C166        C  0.68786447  0.70380132  0.97364616     0.03000
H167        H  0.71461352  0.67609835  0.97673662     0.08100
H168        H  0.67969376  0.71304211  0.97721582     0.07000
N169        N  0.72556647  0.90689809  0.68280727    -0.27400
N170        N  0.71965388  0.89314551  0.68763621    -0.35300
C171        C  0.72612046  0.88141718  0.67891816     0.00900
C172        C  0.73658098  0.88817232  0.66816987     0.06900
C173        C  0.73603692  0.90429185  0.67106362    -0.06200
H174        H  0.72393202  0.86887929  0.68075362     0.07600
H175        H  0.74299752  0.91343862  0.66529049     0.08800
Cu176      Cu  0.70429315  0.89087906  0.70685949     0.44200
Cu177      Cu  0.71988764  0.92869452  0.69255761     0.42000
Cu178      Cu  0.69498667  0.92795208  0.72684227     0.43900
N179        N  0.69078423  0.89243869  0.72747125    -0.34800
N180        N  0.68784661  0.90596691  0.73484447    -0.29100
C181        C  0.67911744  0.90306487  0.74784963    -0.05200
C182        C  0.67639647  0.88689271  0.74883886     0.07000
C183        C  0.68383427  0.88053732  0.73558488     0.00800
H184        H  0.67497835  0.91213201  0.75594645     0.08500
H185        H  0.68386106  0.86827040  0.73180196     0.07600
N186        N  0.70283360  0.94868994  0.71651175    -0.36300
N187        N  0.71227491  0.94902393  0.70399348    -0.28400
C188        C  0.71541275  0.96422831  0.70022652    -0.03700
C189        C  0.70753403  0.97384830  0.71093719     0.04900
C190        C  0.69954866  0.96363425  0.72098877     0.03000
H191        H  0.72264322  0.96798437  0.69028523     0.08100
H192        H  0.69198596  0.96681641  0.73087013     0.07000
N193        N  0.90603977  0.68131675  0.72962444    -0.27400
N194        N  0.89278234  0.68452746  0.72183250    -0.35300
C195        C  0.88053324  0.67736962  0.72917373     0.00900
C196        C  0.88628465  0.66936966  0.74234427     0.06900
C197        C  0.90254960  0.67196757  0.74213042    -0.06200
H198        H  0.86834835  0.67787885  0.72510600     0.07600
H199        H  0.91118101  0.66758754  0.75059357     0.08800
Cu200      Cu  0.89167740  0.69895577  0.70191832     0.44200
Cu201      Cu  0.92814947  0.69013453  0.72298590     0.42000
Cu202      Cu  0.92827644  0.71714420  0.68916294     0.43900
N203        N  0.89298030  0.71541631  0.68366708    -0.34800
N204        N  0.90634338  0.72235117  0.67918027    -0.29100
C205        C  0.90298984  0.73348627  0.66821132    -0.05200
C206        C  0.88674967  0.73342512  0.66553997     0.07000
C207        C  0.88078841  0.72187313  0.67561896     0.00800
H208        H  0.91166245  0.74139563  0.66294996     0.08500
H209        H  0.86841851  0.71902022  0.67766162     0.07600
N210        N  0.94860359  0.70998117  0.70114522    -0.36300
N211        N  0.94859016  0.70028881  0.71351592    -0.28400
C212        C  0.96370406  0.69752320  0.71795148    -0.03700
C213        C  0.97372320  0.70592665  0.70794171     0.04900
C214        C  0.96370601  0.71357336  0.69736499     0.03000
H215        H  0.96714100  0.68931349  0.72722471     0.08100
H216        H  0.96716291  0.72084781  0.68734112     0.07000
N217        N  0.79184377  0.60902548  0.84415293    -0.27400
N218        N  0.79896474  0.62265244  0.84084894    -0.35300
C219        C  0.79181571  0.63436116  0.84904745     0.00900
C220        C  0.77950440  0.62778235  0.85772851     0.06900
C221        C  0.77988277  0.61171400  0.85438742    -0.06200
H222        H  0.79494206  0.64680976  0.84826661     0.07600
H223        H  0.77189464  0.60267921  0.85886324     0.08800
Cu224      Cu  0.81707676  0.62480927  0.82419548     0.44200
Cu225      Cu  0.79828401  0.58744228  0.83418992     0.42000
Cu226      Cu  0.82780130  0.58866645  0.80305556     0.43900
N227        N  0.83349343  0.62399202  0.80576350    -0.34800
N228        N  0.83728231  0.61089698  0.79798353    -0.29100
C229        C  0.84763398  0.61457586  0.78636724    -0.05200
C230        C  0.85064451  0.63076120  0.78691135     0.07000
C231        C  0.84133735  0.63632726  0.79928675     0.00800
H232        H  0.85210553  0.60615157  0.77778060     0.08500
H233        H  0.84013998  0.64852504  0.80314191     0.07600
N234        N  0.81723727  0.56782191  0.81103219    -0.36300
N235        N  0.80663393  0.56737879  0.82260211    -0.28400
C236        C  0.80242422  0.55218794  0.82526610    -0.03700
C237        C  0.81084060  0.54257710  0.81493053     0.04900
C238        C  0.81997466  0.55291788  0.80595690     0.03000
H239        H  0.79369349  0.54846043  0.83393065     0.08100
H240        H  0.82815509  0.54981521  0.79655427     0.07000
N241        N  0.79185967  0.83863850  0.61077220    -0.27400
N242        N  0.79945653  0.83525351  0.62411879    -0.35300
C243        C  0.79315733  0.84386911  0.63597930     0.00900
C244        C  0.78106135  0.85315023  0.62983280     0.06900
C245        C  0.78046648  0.84940741  0.61384727    -0.06200
H246        H  0.79665847  0.84289840  0.64830757     0.07600
H247        H  0.77217933  0.85396613  0.60513916     0.08800
Cu248      Cu  0.81710458  0.81809798  0.62625737     0.44200
Cu249      Cu  0.79674873  0.82813712  0.58902381     0.42000
Cu250      Cu  0.82501948  0.79615748  0.59061459     0.43900
N251        N  0.83284682  0.79909161  0.62530083    -0.34800
N252        N  0.83532102  0.79087170  0.61217288    -0.29100
C253        C  0.84529456  0.77883441  0.61529236    -0.05200
C254        C  0.84950303  0.77958182  0.63111886     0.07000
C255        C  0.84134124  0.79252394  0.63717012     0.00800
H256        H  0.84910806  0.77010128  0.60668369     0.08500
H257        H  0.84116511  0.79653090  0.64937403     0.07600
N258        N  0.81474488  0.80402862  0.56984802    -0.36300
N259        N  0.80446398  0.81585302  0.56911496    -0.28400
C260        C  0.80063242  0.81843331  0.55381576    -0.03700
C261        C  0.80905545  0.80778888  0.54452150     0.04900
C262        C  0.81772068  0.79873640  0.55511255     0.03000
H263        H  0.79232545  0.82737232  0.54979849     0.08100
H264        H  0.82590181  0.78924497  0.55229448     0.07000
N265        N  0.61316502  0.79904884  0.85382636    -0.27400
N266        N  0.62705115  0.80487976  0.84937882    -0.35300
C267        C  0.63871389  0.79661279  0.85645055     0.00900
C268        C  0.63182365  0.78501619  0.86580608     0.06900
C269        C  0.61561559  0.78677712  0.86375687    -0.06200
H270        H  0.65126553  0.79843552  0.85433959     0.07600
H271        H  0.60632119  0.77944792  0.86879151     0.08800
Cu272      Cu  0.62960075  0.82264323  0.83270228     0.44200
Cu273      Cu  0.59174547  0.80732780  0.84510781     0.42000
Cu274      Cu  0.59414747  0.83612327  0.81283895     0.43900
N275        N  0.62959920  0.83935380  0.81478795    -0.34800
N276        N  0.61663945  0.84433632  0.80747383    -0.29100
C277        C  0.62079173  0.85447978  0.79586008    -0.05200
C278        C  0.63716990  0.85599476  0.79594678     0.07000
C279        C  0.64235040  0.84613969  0.80802597     0.00800
H280        H  0.61255117  0.85968486  0.78748220     0.08500
H281        H  0.65452595  0.84370575  0.81136046     0.07600
N282        N  0.57326666  0.82581066  0.82057336    -0.36300
N283        N  0.57235877  0.81571806  0.83257192    -0.28400
C284        C  0.55718577  0.81112738  0.83437498    -0.03700
C285        C  0.54814639  0.81838927  0.82271257     0.04900
C286        C  0.55871054  0.82779859  0.81433384     0.03000
H287        H  0.55312978  0.80307793  0.84352993     0.08100
H288        H  0.55608497  0.83528254  0.80421461     0.07000
N289        N  0.34919303  0.70636430  0.89519764    -0.27400
N290        N  0.34398738  0.70078122  0.88147792    -0.35300
C291        C  0.35088193  0.70896884  0.86960143     0.00900
C292        C  0.36069583  0.72036834  0.87623365     0.06900
C293        C  0.35944148  0.71829621  0.89246100    -0.06200
H294        H  0.34842596  0.70720412  0.85711090     0.07600
H295        H  0.36530314  0.72514192  0.90162775     0.08800
Cu296      Cu  0.32663773  0.68338780  0.87977304     0.44200
Cu297      Cu  0.34146556  0.69829822  0.91703993     0.42000
Cu298      Cu  0.31055628  0.66868146  0.91720544     0.43900
N299        N  0.30780774  0.66761076  0.88155557    -0.34800
N300        N  0.30204583  0.66220438  0.89513241    -0.29100
C301        C  0.28941675  0.65289311  0.89212837    -0.05200
C302        C  0.28695245  0.65263843  0.87590221     0.07000
C303        C  0.29896036  0.66191349  0.86955383     0.00800
H304        H  0.28225554  0.64715237  0.90113373     0.08500
H305        H  0.30108957  0.66444261  0.85713882     0.07600
N306        N  0.31993201  0.67856205  0.93760419    -0.36300
N307        N  0.33133692  0.68935155  0.93751761    -0.28400
C308        C  0.33424841  0.69397217  0.95249658    -0.03700
C309        C  0.32423586  0.68563799  0.96254913     0.04900
C310        C  0.31520350  0.67608406  0.95264181     0.03000
H311        H  0.34276553  0.70303583  0.95577833     0.08100
H312        H  0.30537527  0.66848854  0.95595150     0.07000
N313        N  0.34012955  0.89658687  0.71990096    -0.27400
N314        N  0.33494966  0.88265544  0.71482097    -0.35300
C315        C  0.34235432  0.87110307  0.72296055     0.00900
C316        C  0.35259073  0.87806057  0.73380198     0.06900
C317        C  0.35101147  0.89425553  0.73137081    -0.06200
H318        H  0.34019107  0.85853575  0.72132643     0.07600
H319        H  0.35729369  0.90370075  0.73740539     0.08800
Cu320      Cu  0.31754401  0.87973586  0.69762785     0.44200
Cu321      Cu  0.33124940  0.91812737  0.71206649     0.42000
Cu322      Cu  0.29752106  0.91547454  0.68545647     0.43900
N323        N  0.29905594  0.87998595  0.68133935    -0.34800
N324        N  0.29169772  0.89312275  0.67691703    -0.29100
C325        C  0.28009831  0.88938450  0.66657949    -0.05200
C326        C  0.27998837  0.87305917  0.66453709     0.07000
C327        C  0.29231768  0.86752126  0.67393918     0.00800
H328        H  0.27243424  0.89797654  0.66088182     0.08500
H329        H  0.29594990  0.85529239  0.67549650     0.07600
N330        N  0.30545751  0.93652397  0.69549202    -0.36300
N331        N  0.31798696  0.93754809  0.70490530    -0.28400
C332        C  0.31996879  0.95276944  0.70930752    -0.03700
C333        C  0.30819790  0.96182404  0.70222532     0.04900
C334        C  0.29909161  0.95105630  0.69371625     0.03000
H335        H  0.32932019  0.95694330  0.71708786     0.08100
H336        H  0.28843040  0.95347498  0.68696788     0.07000
N337        N  0.41463869  0.78355636  0.83233770    -0.27400
N338        N  0.40091474  0.79039747  0.82900549    -0.35300
C339        C  0.38908582  0.78155731  0.83507515     0.00900
C340        C  0.39571041  0.76841480  0.84234393     0.06900
C341        C  0.41193942  0.77008158  0.84049145    -0.06200
H342        H  0.37657818  0.78431782  0.83399756     0.07600
H343        H  0.42110235  0.76220389  0.84486647     0.08800
Cu344      Cu  0.39889913  0.81047796  0.81498464     0.44200
Cu345      Cu  0.43619245  0.79294501  0.82543908     0.42000
Cu346      Cu  0.43470065  0.82199987  0.79377568     0.43900
N347        N  0.39935996  0.82681377  0.79662672    -0.34800
N348        N  0.41223656  0.83028041  0.78830670    -0.29100
C349        C  0.40822474  0.83998502  0.77627844    -0.05200
C350        C  0.39209697  0.84279197  0.77718501     0.07000
C351        C  0.38682932  0.83435193  0.79021637     0.00800
H352        H  0.41640698  0.84454061  0.76747114     0.08500
H353        H  0.37470612  0.83324764  0.79434558     0.07600
N354        N  0.45549659  0.81476347  0.80464331    -0.36300
N355        N  0.45586086  0.80454909  0.81655399    -0.28400
C356        C  0.47084635  0.80316275  0.82176803    -0.03700
C357        C  0.48044718  0.81301969  0.81276763     0.04900
C358        C  0.47031860  0.82006426  0.80186504     0.03000
H359        H  0.47445658  0.79561707  0.83153195     0.08100
H360        H  0.47340198  0.82829609  0.79249813     0.07000
N361        N  0.10748976  0.66591362  0.71844854    -0.27400
N362        N  0.12053283  0.66794327  0.70991158    -0.35300
C363        C  0.13240620  0.65953877  0.71651034     0.00900
C364        C  0.12656717  0.65185770  0.72981212     0.06900
C365        C  0.11077786  0.65627081  0.73077351    -0.06200
H366        H  0.14454342  0.65951775  0.71228161     0.07600
H367        H  0.10234947  0.65288095  0.73986770     0.08800
Cu368      Cu  0.12227678  0.68320637  0.69058373     0.44200
Cu369      Cu  0.08594288  0.67680702  0.71346214     0.42000
Cu370      Cu  0.08720406  0.70587738  0.68177643     0.43900
N371        N  0.12174069  0.70126570  0.67375818    -0.34800
N372        N  0.10888268  0.70976073  0.67076651    -0.29100
C373        C  0.11260327  0.72144837  0.66051756    -0.05200
C374        C  0.12860997  0.72032849  0.65695360     0.07000
C375        C  0.13399227  0.70728774  0.66541393     0.00800
H376        H  0.10434968  0.73035551  0.65631504     0.08500
H377        H  0.14608970  0.70300276  0.66608497     0.07600
N378        N  0.06681500  0.70023137  0.69437983    -0.36300
N379        N  0.06626378  0.68962437  0.70595763    -0.28400
C380        C  0.05122375  0.68853110  0.71129364    -0.03700
C381        C  0.04185276  0.69880234  0.70250252     0.04900
C382        C  0.05218044  0.70614880  0.69202885     0.03000
H383        H  0.04731854  0.68053828  0.72057934     0.08100
H384        H  0.04928288  0.71507956  0.68325031     0.07000
N385        N  0.22952301  0.59893559  0.82525570    -0.27400
N386        N  0.22028930  0.61154618  0.82403749    -0.35300
C387        C  0.22627448  0.62322867  0.83313671     0.00900
C388        C  0.23983636  0.61759514  0.84057579     0.06900
C389        C  0.24161108  0.60220124  0.83513717    -0.06200
H390        H  0.22126502  0.63502204  0.83406551     0.07600
H391        H  0.25126587  0.59412025  0.83767959     0.08800
Cu392      Cu  0.20058399  0.61230453  0.80934194     0.44200
Cu393      Cu  0.22543872  0.57798154  0.81331491     0.42000
Cu394      Cu  0.19079707  0.57563973  0.78823792     0.43900
N395        N  0.18262402  0.61033817  0.79263944    -0.34800
N396        N  0.17901736  0.59706900  0.78504674    -0.29100
C397        C  0.16769269  0.60021463  0.77423309    -0.05200
C398        C  0.16393055  0.61621557  0.77505937     0.07000
C399        C  0.17374613  0.62225828  0.78680271     0.00800
H400        H  0.16299620  0.59159952  0.76592891     0.08500
H401        H  0.17511272  0.63457358  0.79019234     0.07600
N402        N  0.20534966  0.55635697  0.79316942    -0.36300
N403        N  0.21808945  0.55741430  0.80228871    -0.28400
C404        C  0.22418977  0.54286493  0.80450225    -0.03700
C405        C  0.21495105  0.53206236  0.79628645     0.04900
C406        C  0.20305503  0.54102263  0.78926191     0.03000
H407        H  0.23409469  0.54024084  0.81227079     0.08100
H408        H  0.19286127  0.53661525  0.78277677     0.07000
N409        N  0.22952462  0.82028210  0.60499938    -0.27400
N410        N  0.22083724  0.81708906  0.61770113    -0.35300
C411        C  0.22649257  0.82549373  0.63006821     0.00900
C412        C  0.23946820  0.83418645  0.62494010     0.06900
C413        C  0.24099156  0.83069200  0.60897380    -0.06200
H414        H  0.22189295  0.82484324  0.64204720     0.07600
H415        H  0.24991541  0.83519476  0.60088753     0.08800
Cu416      Cu  0.20258383  0.80041495  0.61809655     0.44200
Cu417      Cu  0.22582577  0.81008158  0.58291284     0.42000
Cu418      Cu  0.19450481  0.78052897  0.58116038     0.43900
N419        N  0.18614765  0.78208549  0.61581631    -0.34800
N420        N  0.18317882  0.77482499  0.60222584    -0.29100
C421        C  0.17252145  0.76316147  0.60471407    -0.05200
C422        C  0.16876739  0.76286091  0.62072785     0.07000
C423        C  0.17749130  0.77517611  0.62734367     0.00800
H424        H  0.16793020  0.75546061  0.59551315     0.08500
H425        H  0.17787247  0.77856194  0.63973160     0.07600
N426        N  0.20707592  0.78842009  0.56155692    -0.36300
N427        N  0.21852232  0.79918316  0.56209919    -0.28400
C428        C  0.22289686  0.80289565  0.54717682    -0.03700
C429        C  0.21357323  0.79421189  0.53679912     0.04900
C430        C  0.20386932  0.78499023  0.54632273     0.03000
H431        H  0.23137494  0.81207281  0.54411101     0.08100
H432        H  0.19452191  0.77703754  0.54247102     0.07000
N433        N  0.10307976  0.27973767  0.68869601    -0.27400
N434        N  0.11611153  0.28810082  0.69137279    -0.35300
C435        C  0.12806959  0.28203219  0.68279504     0.00900
C436        C  0.12240595  0.26912295  0.67436945     0.06900
C437        C  0.10644155  0.26807040  0.67829175    -0.06200
H438        H  0.14011359  0.28654991  0.68288865     0.07600
H439        H  0.09784589  0.25963158  0.67379557     0.08800
Cu440      Cu  0.11761970  0.30699205  0.70697111     0.44200
Cu441      Cu  0.08149181  0.28481944  0.69940404     0.42000
Cu442      Cu  0.08276197  0.31624727  0.72938293     0.43900
N443        N  0.11731582  0.32387738  0.72477506    -0.34800
N444        N  0.10460735  0.32694026  0.73344518    -0.29100
C445        C  0.10848573  0.33758360  0.74471897    -0.05200
C446        C  0.12433709  0.34156843  0.74285558     0.07000
C447        C  0.12958729  0.33257476  0.73017186     0.00800
H448        H  0.10041664  0.34198677  0.75368613     0.08500
H449        H  0.14157778  0.33193258  0.72559118     0.07600
N450        N  0.06213116  0.30503646  0.72182256    -0.36300
N451        N  0.06165561  0.29363679  0.71102717    -0.28400
C452        C  0.04640988  0.28968810  0.70828120    -0.03700
C453        C  0.03681958  0.29920300  0.71761016     0.04900
C454        C  0.04720655  0.30864566  0.72618957     0.03000
H455        H  0.04256199  0.28096187  0.69966377     0.08100
H456        H  0.04418226  0.31764094  0.73483433     0.07000
N457        N  0.22928885  0.39775567  0.83617387    -0.27400
N458        N  0.22053394  0.38496267  0.83359066    -0.35300
C459        C  0.22562360  0.37315002  0.84301312     0.00900
C460        C  0.23809329  0.37876110  0.85212092     0.06900
C461        C  0.24027927  0.39435697  0.84731430    -0.06200
H462        H  0.22069045  0.36127432  0.84308348     0.07600
H463        H  0.24903246  0.40267186  0.85175117     0.08800
Cu464      Cu  0.20194265  0.38382227  0.81754039     0.44200
Cu465      Cu  0.22519966  0.41924932  0.82476187     0.42000
Cu466      Cu  0.19144498  0.41954529  0.79714101     0.43900
N467        N  0.18391572  0.38492783  0.80086189    -0.34800
N468        N  0.18003700  0.39809521  0.79326356    -0.29100
C469        C  0.16842699  0.39482023  0.78277429    -0.05200
C470        C  0.16469678  0.37882766  0.78396442     0.07000
C471        C  0.17487974  0.37291646  0.79545508     0.00800
H472        H  0.16326801  0.40338656  0.77469524     0.08500
H473        H  0.17611527  0.36067690  0.79917307     0.07600
N474        N  0.20491403  0.43932140  0.80288845    -0.36300
N475        N  0.21715266  0.43925389  0.81275886    -0.28400
C476        C  0.22285589  0.45413090  0.81404513    -0.03700
C477        C  0.21365797  0.46404548  0.80467477     0.04900
C478        C  0.20252978  0.45420938  0.79764984     0.03000
H479        H  0.23294068  0.45743494  0.82130012     0.08100
H480        H  0.19311657  0.45768355  0.78960976     0.07000
N481        N  0.33143455  0.09709859  0.72652417    -0.27400
N482        N  0.32702982  0.11067724  0.71997752    -0.35300
C483        C  0.33526986  0.12261198  0.72671573     0.00900
C484        C  0.34514144  0.11621717  0.73819523     0.06900
C485        C  0.34248244  0.10001608  0.73768632    -0.06200
H486        H  0.33385084  0.13505097  0.72379860     0.07600
H487        H  0.34807785  0.09101279  0.74495701     0.08800
Cu488      Cu  0.30937843  0.11229765  0.70285402     0.44200
Cu489      Cu  0.32186126  0.07530289  0.72037033     0.42000
Cu490      Cu  0.28914300  0.07580672  0.69206965     0.43900
N491        N  0.29119769  0.11109143  0.68625045    -0.34800
N492        N  0.28369864  0.09787007  0.68225862    -0.29100
C493        C  0.27262176  0.10133817  0.67121691    -0.05200
C494        C  0.27334658  0.11748554  0.66797141     0.07000
C495        C  0.28511880  0.12326593  0.67791117     0.00800
H496        H  0.26468631  0.09273578  0.66588479     0.08500
H497        H  0.28881365  0.13550206  0.67926526     0.07600
N498        N  0.29784606  0.05530256  0.70285168    -0.36300
N499        N  0.30992024  0.05513851  0.71289907    -0.28400
C500        C  0.31332675  0.04001436  0.71674679    -0.03700
C501        C  0.30275934  0.03009147  0.70892624     0.04900
C502        C  0.29320227  0.04025361  0.70013843     0.03000
H503        H  0.32333689  0.03654296  0.72401168     0.08100
H504        H  0.28387195  0.03692335  0.69194063     0.07000
N505        N  0.40037349  0.21053345  0.83916728    -0.27400
N506        N  0.38878042  0.20017616  0.83688575    -0.35300
C507        C  0.37606104  0.20452267  0.84547946     0.00900
C508        C  0.37981087  0.21829088  0.85360213     0.06900
C509        C  0.39526913  0.22185885  0.84920447    -0.06200
H510        H  0.36465038  0.19859362  0.84512833     0.07600
H511        H  0.40215263  0.23213171  0.85273990     0.08800
Cu512      Cu  0.38992948  0.18200995  0.82047614     0.44200
Cu513      Cu  0.42221808  0.20903155  0.82776894     0.42000
Cu514      Cu  0.42528314  0.17925804  0.79640015     0.43900
N515        N  0.39176651  0.16767010  0.80068506    -0.34800
N516        N  0.40457265  0.16669890  0.79167624    -0.29100
C517        C  0.40134597  0.15732718  0.77912697    -0.05200
C518        C  0.38564681  0.15238703  0.78019426     0.07000
C519        C  0.38006092  0.15905002  0.79412177     0.00800
H520        H  0.40980311  0.15446337  0.76990913     0.08500
H521        H  0.36812875  0.15822005  0.79883192     0.07600
N522        N  0.44399146  0.19357503  0.80375892    -0.36300
N523        N  0.44291328  0.20431088  0.81516678    -0.28400
C524        C  0.45735892  0.21070173  0.81766147    -0.03700
C525        C  0.46803000  0.20380832  0.80721708     0.04900
C526        C  0.45912389  0.19291523  0.79867777     0.03000
H527        H  0.46000360  0.21938122  0.82676215     0.08100
H528        H  0.46345943  0.18448218  0.79002484     0.07000
N529        N  0.28297371  0.32049065  0.91048802    -0.27400
N530        N  0.28916362  0.31570747  0.89688535    -0.35300
C531        C  0.28444444  0.32557058  0.88524956     0.00900
C532        C  0.27480033  0.33709383  0.89183582     0.06900
C533        C  0.27393662  0.33340421  0.90782539    -0.06200
H534        H  0.28743488  0.32417966  0.87283327     0.07600
H535        H  0.26726363  0.33964693  0.91684609     0.08800
Cu536      Cu  0.30334696  0.29573611  0.89459703     0.44200
Cu537      Cu  0.28781918  0.30957719  0.93201545     0.42000
Cu538      Cu  0.31452138  0.27545793  0.93056981     0.43900
N539        N  0.31831350  0.27621803  0.89510887    -0.34800
N540        N  0.32256389  0.26884367  0.90829844    -0.29100
C541        C  0.33322917  0.25751047  0.90472096    -0.05200
C542        C  0.33595983  0.25788786  0.88850213     0.07000
C543        C  0.32607236  0.26972724  0.88278013     0.00800
H544        H  0.33899686  0.24993865  0.91336265     0.08500
H545        H  0.32470016  0.27351829  0.87058386     0.07600
N546        N  0.30641762  0.28576378  0.95136401    -0.36300
N547        N  0.29680783  0.29816263  0.95189696    -0.28400
C548        C  0.29504882  0.30269249  0.96709649    -0.03700
C549        C  0.30382108  0.29255147  0.97663901     0.04900
C550        C  0.31095911  0.28205251  0.96621169     0.03000
H551        H  0.28859535  0.31316055  0.97077235     0.08100
H552        H  0.31927934  0.27271059  0.96914694     0.07000
N553        N  0.22335536  0.17504953  0.61288578    -0.27400
N554        N  0.21434118  0.17638177  0.62567771    -0.35300
C555        C  0.21926069  0.16579490  0.63661626     0.00900
C556        C  0.23198111  0.15741569  0.63042266     0.06900
C557        C  0.23433833  0.16372803  0.61542443    -0.06200
H558        H  0.21443841  0.16481328  0.64848477     0.07600
H559        H  0.24354043  0.16050628  0.60706291     0.08800
Cu560      Cu  0.19673280  0.19354141  0.62825929     0.44200
Cu561      Cu  0.22042039  0.18863457  0.59250481     0.42000
Cu562      Cu  0.19026624  0.21895814  0.59416654     0.43900
N563        N  0.18114285  0.21272611  0.62814730    -0.34800
N564        N  0.17900434  0.22204098  0.61568331    -0.29100
C565        C  0.16854057  0.23348509  0.61937974    -0.05200
C566        C  0.16395057  0.23142756  0.63500731     0.07000
C567        C  0.17204322  0.21804458  0.64015174     0.00800
H568        H  0.16447466  0.24251708  0.61119130     0.08500
H569        H  0.17155748  0.21273137  0.65184738     0.07600
N570        N  0.20214286  0.21293318  0.57363337    -0.36300
N571        N  0.21331049  0.20193561  0.57299096    -0.28400
C572        C  0.21825102  0.20050962  0.55788004    -0.03700
C573        C  0.20962651  0.21097818  0.54856506     0.04900
C574        C  0.19964102  0.21877890  0.55898982     0.03000
H575        H  0.22718703  0.19219011  0.55389661     0.08100
H576        H  0.19120142  0.22805304  0.55620659     0.07000
N577        N  0.10992782  0.67653171  0.28410886    -0.27400
N578        N  0.12356110  0.68238694  0.28931742    -0.35300
C579        C  0.13550036  0.67617864  0.28068484     0.00900
C580        C  0.12905179  0.66592657  0.26953720     0.06900
C581        C  0.11281335  0.66656673  0.27196736    -0.06200
H582        H  0.14792421  0.67911418  0.28223869     0.07600
H583        H  0.10376123  0.66013975  0.26547274     0.08800
Cu584      Cu  0.12516812  0.69900009  0.30757773     0.44200
Cu585      Cu  0.08799624  0.68217553  0.29382246     0.42000
Cu586      Cu  0.08789986  0.71255503  0.32426670     0.43900
N587        N  0.12341779  0.71665462  0.32481082    -0.34800
N588        N  0.10978005  0.72185503  0.33056401    -0.29100
C589        C  0.11266047  0.73363606  0.34095664    -0.05200
C590        C  0.12891958  0.73611933  0.34175446     0.07000
C591        C  0.13534981  0.72492727  0.33151265     0.00800
H592        H  0.10354497  0.74003149  0.34735227     0.08500
H593        H  0.14778730  0.72273829  0.32920696     0.07600
N594        N  0.06772765  0.70063079  0.31680417    -0.36300
N595        N  0.06770420  0.68957796  0.30566169    -0.28400
C596        C  0.05270687  0.68452382  0.30337991    -0.03700
C597        C  0.04286605  0.69264356  0.31373393     0.04900
C598        C  0.05278693  0.70285893  0.32195086     0.03000
H599        H  0.04919692  0.67573015  0.29468854     0.08100
H600        H  0.04935792  0.71166972  0.33063808     0.07000
N601        N  0.22608781  0.83194410  0.40308354    -0.27400
N602        N  0.21775207  0.83064779  0.38984530    -0.35300
C603        C  0.22525469  0.83873292  0.37826416     0.00900
C604        C  0.23905087  0.84517317  0.38455480     0.06900
C605        C  0.23910109  0.84075609  0.40033895    -0.06200
H606        H  0.22115350  0.83960098  0.36611269     0.07600
H607        H  0.24786423  0.84380661  0.40923951     0.08800
Cu608      Cu  0.19721882  0.81698197  0.38827079     0.44200
Cu609      Cu  0.21970520  0.82156937  0.42422841     0.42000
Cu610      Cu  0.18606451  0.79512176  0.42418277     0.43900
N611        N  0.17933829  0.79993964  0.38922751    -0.34800
N612        N  0.17554853  0.79173754  0.40208441    -0.29100
C613        C  0.16498832  0.78039229  0.39809527    -0.05200
C614        C  0.16181455  0.78156640  0.38196527     0.07000
C615        C  0.17120343  0.79409515  0.37679133     0.00800
H616        H  0.16080951  0.77131250  0.40617202     0.08500
H617        H  0.17262411  0.79819731  0.36469434     0.07600
N618        N  0.19929811  0.80040805  0.44436128    -0.36300
N619        N  0.21169176  0.81005607  0.44420200    -0.28400
C620        C  0.21778579  0.81112246  0.45890138    -0.03700
C621        C  0.20890205  0.80154503  0.46883792     0.04900
C622        C  0.19714603  0.79508217  0.45927012     0.03000
H623        H  0.22768660  0.81866488  0.46213784     0.08100
H624        H  0.18771491  0.78711983  0.46289497     0.07000
N625        N  0.21411570  0.60835027  0.15867776    -0.27400
N626        N  0.20790226  0.62188291  0.16362374    -0.35300
C627        C  0.21561005  0.63403461  0.15667477     0.00900
C628        C  0.22737693  0.62786179  0.14706340     0.06900
C629        C  0.22603660  0.61153420  0.14851258    -0.06200
H630        H  0.21338756  0.64645330  0.15910962     0.07600
H631        H  0.23349694  0.60264721  0.14301360     0.08800
Cu632      Cu  0.19071585  0.62330834  0.18114870     0.44200
Cu633      Cu  0.20711523  0.58636755  0.16734782     0.42000
Cu634      Cu  0.17987998  0.58676614  0.20109393     0.43900
N635        N  0.17561932  0.62237548  0.20054394    -0.34800
N636        N  0.17194587  0.60912523  0.20816803    -0.29100
C637        C  0.16290285  0.61280214  0.22083615    -0.05200
C638        C  0.16061448  0.62909597  0.22100803     0.07000
C639        C  0.16890738  0.63477549  0.20802571     0.00800
H640        H  0.15844842  0.60428002  0.22937404     0.08500
H641        H  0.17042543  0.64707256  0.20458700     0.07600
N642        N  0.18978242  0.56619798  0.19152501    -0.36300
N643        N  0.19962085  0.56613872  0.17927900    -0.28400
C644        C  0.20436615  0.55115309  0.17649724    -0.03700
C645        C  0.19706607  0.54120949  0.18737595     0.04900
C646        C  0.18799477  0.55119425  0.19680399     0.03000
H647        H  0.21273309  0.54777017  0.16735837     0.08100
H648        H  0.18107953  0.54791075  0.20712308     0.07000
N649        N  0.33933882  0.71770576  0.09777486    -0.27400
N650        N  0.33421880  0.71150828  0.11128658    -0.35300
C651        C  0.34134987  0.71909178  0.12342149     0.00900
C652        C  0.35117802  0.73070690  0.11718686     0.06900
C653        C  0.34970888  0.72942679  0.10092541    -0.06200
H654        H  0.33895108  0.71686786  0.13584949     0.07600
H655        H  0.35541970  0.73674333  0.09202504     0.08800
Cu656      Cu  0.31625497  0.69454911  0.11273630     0.44200
Cu657      Cu  0.33143232  0.71111822  0.07555112     0.42000
Cu658      Cu  0.29757891  0.68561526  0.07497477     0.43900
N659        N  0.29605333  0.68044983  0.11036019    -0.34800
N660        N  0.28907549  0.67769912  0.09655655    -0.29100
C661        C  0.27602580  0.66880550  0.09890466    -0.05200
C662        C  0.27462858  0.66583759  0.11497448     0.07000
C663        C  0.28762010  0.67323915  0.12188952     0.00800
H664        H  0.26829495  0.66458258  0.08953992     0.08500
H665        H  0.29059805  0.67352693  0.13438898     0.07600
N666        N  0.30877146  0.69346572  0.05463682    -0.36300
N667        N  0.32132224  0.70288706  0.05481963    -0.28400
C668        C  0.32642176  0.70510218  0.03986251    -0.03700
C669        C  0.31650479  0.69671346  0.02977014     0.04900
C670        C  0.30553549  0.68937309  0.03957038     0.03000
H671        H  0.33700581  0.71168273  0.03669323     0.08100
H672        H  0.29615598  0.68130225  0.03605231     0.07000
N673        N  0.40067774  0.83418792  0.21452567    -0.27400
N674        N  0.38747025  0.83051409  0.20681939    -0.35300
C675        C  0.37511022  0.83749678  0.21415826     0.00900
C676        C  0.38084074  0.84568024  0.22721585     0.06900
C677        C  0.39708404  0.84342068  0.22701257    -0.06200
H678        H  0.36282989  0.83635267  0.21051742     0.07600
H679        H  0.40568973  0.84814650  0.23531804     0.08800
Cu680      Cu  0.38671107  0.81508095  0.18754013     0.44200
Cu681      Cu  0.42307124  0.82636275  0.20831177     0.42000
Cu682      Cu  0.42452056  0.79716380  0.17758391     0.43900
N683        N  0.38943908  0.79703844  0.17089177    -0.34800
N684        N  0.40330146  0.79049897  0.16751582    -0.29100
C685        C  0.40110950  0.77840805  0.15737116    -0.05200
C686        C  0.38505889  0.77712617  0.15429613     0.07000
C687        C  0.37800041  0.78924112  0.16287806     0.00800
H688        H  0.41051748  0.77095696  0.15280660     0.08500
H689        H  0.36542892  0.79176931  0.16374185     0.07600
N690        N  0.44431950  0.80493428  0.18956119    -0.36300
N691        N  0.44389958  0.81591099  0.20072971    -0.28400
C692        C  0.45873706  0.81855901  0.20599257    -0.03700
C693        C  0.46894261  0.80851820  0.19790359     0.04900
C694        C  0.45937540  0.80018159  0.18746397     0.03000
H695        H  0.46182318  0.82741156  0.21476791     0.08100
H696        H  0.46306650  0.79131452  0.17893946     0.07000
N697        N  0.29663551  0.90338900  0.33815451    -0.27400
N698        N  0.30272378  0.88989880  0.33296422    -0.35300
C699        C  0.29563226  0.87772172  0.34048200     0.00900
C700        C  0.28438839  0.88384494  0.35073909     0.06900
C701        C  0.28548201  0.90016813  0.34911641    -0.06200
H702        H  0.29781940  0.86531199  0.33796670     0.07600
H703        H  0.27834648  0.90904391  0.35504170     0.08800
Cu704      Cu  0.31862039  0.88856468  0.31433156     0.44200
Cu705      Cu  0.30262650  0.92537285  0.32890520     0.42000
Cu706      Cu  0.32863016  0.92544068  0.29443855     0.43900
N707        N  0.33179097  0.88978261  0.29366392    -0.34800
N708        N  0.33520464  0.90314017  0.28612416    -0.29100
C709        C  0.34353465  0.89965068  0.27293611    -0.05200
C710        C  0.34534908  0.88330619  0.27214149     0.07000
C711        C  0.33787446  0.87748478  0.28555539     0.00800
H712        H  0.34824305  0.90839795  0.26477445     0.08500
H713        H  0.33686320  0.86517559  0.28913649     0.07600
N714        N  0.32063611  0.94591770  0.30568506    -0.36300
N715        N  0.31084131  0.94582042  0.31796810    -0.28400
C716        C  0.30805356  0.96085981  0.32253478    -0.03700
C717        C  0.31670297  0.97088941  0.31284419     0.04900
C718        C  0.32450371  0.96105898  0.30225063     0.03000
H719        H  0.30069345  0.96421342  0.33251147     0.08100
H720        H  0.33249351  0.96463250  0.29283757     0.07000
N721        N  0.72208510  0.66740915  0.11711476    -0.27400
N722        N  0.71428985  0.66896436  0.13063965    -0.35300
C723        C  0.72148550  0.66009432  0.14181825     0.00900
C724        C  0.73437029  0.65257154  0.13492471     0.06900
C725        C  0.73446512  0.65760079  0.11930273    -0.06200
H726        H  0.71798560  0.65968649  0.15417266     0.07600
H727        H  0.74302127  0.65451826  0.11023194     0.08800
Cu728      Cu  0.69514830  0.68419971  0.13342598     0.44200
Cu729      Cu  0.71579036  0.67883202  0.09638206     0.42000
Cu730      Cu  0.68365277  0.70694747  0.09829258     0.43900
N731        N  0.67859997  0.70244031  0.13361709    -0.34800
N732        N  0.67482691  0.71102302  0.12098965    -0.29100
C733        C  0.66507695  0.72283926  0.12548620    -0.05200
C734        C  0.66259175  0.72159565  0.14167465     0.07000
C735        C  0.67121670  0.70847520  0.14643160     0.00800
H736        H  0.66042186  0.73187482  0.11761506     0.08500
H737        H  0.67263565  0.70409694  0.15843385     0.07600
N738        N  0.69451589  0.70015878  0.07719877    -0.36300
N739        N  0.70642581  0.68996571  0.07667890    -0.28400
C740        C  0.71043007  0.68733823  0.06148025    -0.03700
C741        C  0.70067978  0.69642048  0.05187688     0.04900
C742        C  0.69060944  0.70428921  0.06225016     0.03000
H743        H  0.71926380  0.67881530  0.05772195     0.08100
H744        H  0.68093569  0.71215648  0.05914341     0.07000
N745        N  0.66802878  0.89949799  0.30000170    -0.27400
N746        N  0.67076389  0.88566767  0.30694786    -0.35300
C747        C  0.66198433  0.87443083  0.29972146     0.00900
C748        C  0.65337028  0.88154933  0.28766255     0.06900
C749        C  0.65760491  0.89740167  0.28807911    -0.06200
H750        H  0.66250982  0.86188004  0.30245644     0.07600
H751        H  0.65374546  0.90665169  0.28002780     0.08800
Cu752      Cu  0.68781744  0.88227021  0.32448260     0.44200
Cu753      Cu  0.67921604  0.92047624  0.30621631     0.42000
Cu754      Cu  0.71131269  0.91712606  0.33403906     0.43900
N755        N  0.70747514  0.88195242  0.33942664    -0.34800
N756        N  0.71614923  0.89468665  0.34253516    -0.29100
C757        C  0.72854277  0.89053253  0.35166847    -0.05200
C758        C  0.72771677  0.87438183  0.35438538     0.07000
C759        C  0.71412344  0.86931461  0.34662307     0.00800
H760        H  0.73752748  0.89868632  0.35593897     0.08500
H761        H  0.70968127  0.85727098  0.34585276     0.07600
N762        N  0.70413613  0.93844172  0.32439410    -0.36300
N763        N  0.69229405  0.93969670  0.31417224    -0.28400
C764        C  0.69039683  0.95505709  0.31029231    -0.03700
C765        C  0.70171976  0.96385828  0.31835756     0.04900
C766        C  0.71010865  0.95295503  0.32732491     0.03000
H767        H  0.68122144  0.95948560  0.30245743     0.08100
H768        H  0.71983065  0.95537992  0.33538697     0.07000
N769        N  0.78535656  0.82444798  0.40947677    -0.27400
N770        N  0.79238657  0.82090512  0.39592721    -0.35300
C771        C  0.78449586  0.82792726  0.38396932     0.00900
C772        C  0.77176375  0.83614378  0.39030246     0.06900
C773        C  0.77276761  0.83381376  0.40654226    -0.06200
H774        H  0.78764805  0.82692334  0.37155490     0.07600
H775        H  0.76507902  0.83869403  0.41559036     0.08800
Cu776      Cu  0.81175115  0.80593659  0.39442894     0.44200
Cu777      Cu  0.79320594  0.81600298  0.43109231     0.42000
Cu778      Cu  0.82360459  0.78540341  0.43075276     0.43900
N779        N  0.82864018  0.78817324  0.39531960    -0.34800
N780        N  0.83261572  0.78033312  0.40833883    -0.29100
C781        C  0.84322214  0.76903866  0.40450189    -0.05200
C782        C  0.84595010  0.76971791  0.38828033     0.07000
C783        C  0.83664806  0.78215884  0.38291601     0.00800
H784        H  0.84842208  0.76079657  0.41288594     0.08500
H785        H  0.83578269  0.78666315  0.37091958     0.07600
N786        N  0.81351781  0.79449002  0.45136168    -0.36300
N787        N  0.80267890  0.80584604  0.45127727    -0.28400
C788        C  0.79920648  0.80988647  0.46628067    -0.03700
C789        C  0.80811950  0.80053605  0.47637776     0.04900
C790        C  0.81715554  0.79093775  0.46653705     0.03000
H791        H  0.79092383  0.81912634  0.46959431     0.08100
H792        H  0.82613501  0.78246658  0.47010085     0.07000
N793        N  0.90628929  0.66928779  0.29606458    -0.27400
N794        N  0.89312028  0.67271463  0.30382892    -0.35300
C795        C  0.88087329  0.66508085  0.29699959     0.00900
C796        C  0.88668384  0.65626690  0.28441984     0.06900
C797        C  0.90282946  0.65937640  0.28406289    -0.06200
H798        H  0.86864281  0.66596321  0.30084921     0.07600
H799        H  0.91139916  0.65509130  0.27551958     0.08800
Cu800      Cu  0.89256767  0.68836724  0.32262160     0.44200
Cu801      Cu  0.92815899  0.67841894  0.30224266     0.42000
Cu802      Cu  0.92957493  0.70775101  0.33401847     0.43900
N803        N  0.89404682  0.70685752  0.33858548    -0.34800
N804        N  0.90732433  0.71423605  0.34262444    -0.29100
C805        C  0.90367105  0.72651776  0.35219167    -0.05200
C806        C  0.88732217  0.72675483  0.35431131     0.07000
C807        C  0.88167273  0.71416170  0.34542793     0.00800
H808        H  0.91222472  0.73499580  0.35669084     0.08500
H809        H  0.86938567  0.71075136  0.34373656     0.07600
N810        N  0.94956245  0.69866188  0.32266530    -0.36300
N811        N  0.94886109  0.68809260  0.31107823    -0.28400
C812        C  0.96364909  0.68449451  0.30634674    -0.03700
C813        C  0.97425678  0.69334836  0.31521775     0.04900
C814        C  0.96491993  0.70206357  0.32559362     0.03000
H815        H  0.96642197  0.67573259  0.29738445     0.08100
H816        H  0.96899608  0.71027696  0.33460073     0.07000
N817        N  0.60251943  0.83258573  0.22594942    -0.27400
N818        N  0.61659717  0.82690525  0.22195272    -0.35300
C819        C  0.62787250  0.83500705  0.22988056     0.00900
C820        C  0.62048220  0.84623402  0.23931805     0.06900
C821        C  0.60441547  0.84427506  0.23665150    -0.06200
H822        H  0.64044838  0.83239690  0.22941949     0.07600
H823        H  0.59479847  0.85060718  0.24233930     0.08800
Cu824      Cu  0.61965128  0.80721738  0.20734938     0.44200
Cu825      Cu  0.58136476  0.82367286  0.21741616     0.42000
Cu826      Cu  0.58354367  0.78792172  0.19377601     0.43900
N827        N  0.61930362  0.78636631  0.19408398    -0.34800
N828        N  0.60609995  0.77926676  0.18936532    -0.29100
C829        C  0.60986016  0.76627422  0.18090103    -0.05200
C830        C  0.62624492  0.76499460  0.18034516     0.07000
C831        C  0.63183187  0.77804656  0.18870502     0.00800
H832        H  0.60126701  0.75872196  0.17503431     0.08500
H833        H  0.64411741  0.78136653  0.19056732     0.07600
N834        N  0.56254059  0.79946901  0.19907410    -0.36300
N835        N  0.56182577  0.81252338  0.20774953    -0.28400
C836        C  0.54659925  0.81698845  0.20920375    -0.03700
C837        C  0.53729659  0.80633670  0.20089022     0.04900
C838        C  0.54774841  0.79529862  0.19469978     0.03000
H839        H  0.54260010  0.82723443  0.21583571     0.08100
H840        H  0.54482941  0.78484396  0.18782059     0.07000
N841        N  0.83993132  0.59881141  0.22659596    -0.27400
N842        N  0.83559623  0.61190785  0.21911099    -0.35300
C843        C  0.84160194  0.62456183  0.22672615     0.00900
C844        C  0.84992637  0.61924333  0.23984944     0.06900
C845        C  0.84878691  0.60282112  0.23927377    -0.06200
H846        H  0.84012544  0.63670270  0.22280162     0.07600
H847        H  0.85390235  0.59440570  0.24753694     0.08800
Cu848      Cu  0.82075324  0.61238423  0.19966329     0.44200
Cu849      Cu  0.83342304  0.57622903  0.21920199     0.42000
Cu850      Cu  0.80310197  0.57547957  0.18823376     0.43900
N851        N  0.80264295  0.61072452  0.18328250    -0.34800
N852        N  0.79571026  0.59718525  0.17941529    -0.29100
C853        C  0.78350199  0.60022044  0.16956497    -0.05200
C854        C  0.78290422  0.61645011  0.16697830     0.07000
C855        C  0.79512670  0.62274052  0.17597558     0.00800
H856        H  0.77552306  0.59131356  0.16482867     0.08500
H857        H  0.79790996  0.63517388  0.17768710     0.07600
N858        N  0.81348678  0.55541389  0.19788792    -0.36300
N859        N  0.82460296  0.55560641  0.20899705    -0.28400
C860        C  0.82890017  0.54057179  0.21227662    -0.03700
C861        C  0.81989574  0.53046222  0.20293922     0.04900
C862        C  0.81039437  0.54029365  0.19384209     0.03000
H863        H  0.83782280  0.53724029  0.22091376     0.08100
H864        H  0.80203660  0.53677591  0.18473003     0.07000
N865        N  0.12318579  0.33288669  0.28755222    -0.27400
N866        N  0.13614014  0.32994476  0.29590970    -0.35300
C867        C  0.14820417  0.33856596  0.29003117     0.00900
C868        C  0.14267967  0.34742110  0.27728485     0.06900
C869        C  0.12674691  0.34331785  0.27596546    -0.06200
H870        H  0.16020995  0.33821158  0.29461590     0.07600
H871        H  0.11840306  0.34713468  0.26698866     0.08800
Cu872      Cu  0.13744239  0.31339019  0.31404065     0.44200
Cu873      Cu  0.10124410  0.32286275  0.29266030     0.42000
Cu874      Cu  0.10150916  0.29276560  0.32380030     0.43900
N875        N  0.13659302  0.29454645  0.32981295    -0.34800
N876        N  0.12341089  0.28670353  0.33317841    -0.29100
C877        C  0.12680154  0.27495512  0.34346964    -0.05200
C878        C  0.14294216  0.27538328  0.34664283     0.07000
C879        C  0.14873224  0.28804996  0.33789389     0.00800
H880        H  0.11809447  0.26694831  0.34851550     0.08500
H881        H  0.16090165  0.29218148  0.33736394     0.07600
N882        N  0.08107958  0.30179967  0.31352802    -0.36300
N883        N  0.08089868  0.31275313  0.30225984    -0.28400
C884        C  0.06571504  0.31621715  0.29864789    -0.03700
C885        C  0.05590167  0.30705290  0.30817100     0.04900
C886        C  0.06605866  0.29795895  0.31732412     0.03000
H887        H  0.06212825  0.32463489  0.28962159     0.08100
H888        H  0.06276918  0.28929202  0.32623728     0.07000
N889        N  0.19194383  0.22690639  0.41100057    -0.27400
N890        N  0.19435866  0.21691331  0.39914236    -0.35300
C891        C  0.18701076  0.22247762  0.38609506     0.00900
C892        C  0.17978533  0.23675106  0.38985638     0.06900
C893        C  0.18301835  0.23908919  0.40580765    -0.06200
H894        H  0.18716186  0.21669640  0.37462420     0.07600
H895        H  0.17904037  0.24880702  0.41319097     0.08800
Cu896      Cu  0.20819028  0.19658813  0.40087761     0.44200
Cu897      Cu  0.20096961  0.22372495  0.43366381     0.42000
Cu898      Cu  0.22768301  0.19038125  0.43843908     0.43900
N899        N  0.22455893  0.17859644  0.40486305    -0.34800
N900        N  0.23184487  0.17646891  0.41860400    -0.29100
C901        C  0.24276940  0.16494487  0.41699439    -0.05200
C902        C  0.24230142  0.15943618  0.40150189     0.07000
C903        C  0.23066366  0.16846849  0.39413816     0.00800
H904        H  0.25090123  0.16129186  0.42625843     0.08500
H905        H  0.22758827  0.16844734  0.38166278     0.07600
N906        N  0.22119360  0.20542441  0.45675829    -0.36300
N907        N  0.21119984  0.21741808  0.45512634    -0.28400
C908        C  0.20816930  0.22363178  0.46951915    -0.03700
C909        C  0.21686662  0.21528602  0.48069772     0.04900
C910        C  0.22491166  0.20379101  0.47218868     0.03000
H911        H  0.19972409  0.23304603  0.47175866     0.08100
H912        H  0.23205901  0.19424252  0.47697634     0.07000
N913        N  0.34711954  0.10787496  0.30834747    -0.27400
N914        N  0.34333477  0.12056016  0.31677995    -0.35300
C915        C  0.35062752  0.13335346  0.31050817     0.00900
C916        C  0.35941455  0.12846847  0.29750461     0.06900
C917        C  0.35678018  0.11227835  0.29640412    -0.06200
H918        H  0.34913763  0.14539777  0.31472247     0.07600
H919        H  0.36139982  0.10431069  0.28745615     0.08800
Cu920      Cu  0.32718457  0.12004943  0.33542485     0.44200
Cu921      Cu  0.33845645  0.08525397  0.31303758     0.42000
Cu922      Cu  0.30685088  0.08255463  0.34214108     0.43900
N923        N  0.30860536  0.11711761  0.35140040    -0.34800
N924        N  0.30085133  0.10360013  0.35350659    -0.29100
C925        C  0.28866061  0.10608906  0.36354637    -0.05200
C926        C  0.28891753  0.12186419  0.36816846     0.07000
C927        C  0.30165161  0.12850493  0.36015190     0.00800
H928        H  0.28008673  0.09714679  0.36701136     0.08500
H929        H  0.30515796  0.14087667  0.36009712     0.07600
N930        N  0.31548480  0.06321594  0.32951519    -0.36300
N931        N  0.32726800  0.06413581  0.31917008    -0.28400
C932        C  0.33019442  0.04955146  0.31333715    -0.03700
C933        C  0.31956049  0.03899904  0.32012448     0.04900
C934        C  0.31050923  0.04804834  0.33042437     0.03000
H935        H  0.33926954  0.04685826  0.30465547     0.08100
H936        H  0.30116243  0.04388327  0.33820587     0.07000
N937        N  0.41208385  0.22123715  0.18926359    -0.27400
N938        N  0.39871859  0.21516004  0.19484507    -0.35300
C939        C  0.38639919  0.22136603  0.18679805     0.00900
C940        C  0.39224725  0.23206471  0.17573729     0.06900
C941        C  0.40860660  0.23150840  0.17751145    -0.06200
H942        H  0.37410156  0.21825746  0.18887396     0.07600
H943        H  0.41732855  0.23832900  0.17096851     0.08800
Cu944      Cu  0.39773617  0.19921427  0.21357735     0.44200
Cu945      Cu  0.43434401  0.21538869  0.19815233     0.42000
Cu946      Cu  0.43507132  0.18769376  0.23146050     0.43900
N947        N  0.39946504  0.18399118  0.23284943    -0.34800
N948        N  0.41305167  0.17989737  0.23959388    -0.29100
C949        C  0.40999677  0.16991691  0.25173070    -0.05200
C950        C  0.39373445  0.16745342  0.25247951     0.07000
C951        C  0.38744274  0.17669207  0.24042993     0.00800
H952        H  0.41896254  0.16460018  0.25925447     0.08500
H953        H  0.37502275  0.17809055  0.23742227     0.07600
N954        N  0.45533325  0.19664539  0.22045048    -0.36300
N955        N  0.45505750  0.20684372  0.20849200    -0.28400
C956        C  0.47006050  0.20981944  0.20382472    -0.03700
C957        C  0.48031291  0.20113590  0.21332763     0.04900
C958        C  0.47052588  0.19281551  0.22362740     0.03000
H959        H  0.47320021  0.21723207  0.19380294     0.08100
H960        H  0.47417886  0.18438368  0.23261903     0.07000
N961        N  0.19303649  0.40616522  0.22320609    -0.27400
N962        N  0.19882905  0.39292273  0.21712734    -0.35300
C963        C  0.19239519  0.38041050  0.22463138     0.00900
C964        C  0.18214529  0.38599396  0.23615063     0.06900
C965        C  0.18267047  0.40239529  0.23478915    -0.06200
H966        H  0.19486842  0.36814540  0.22172726     0.07600
H967        H  0.17609071  0.41094075  0.24175682     0.08800
Cu968      Cu  0.21533386  0.39220569  0.19909393     0.44200
Cu969      Cu  0.19953005  0.42851501  0.21502024     0.42000
Cu970      Cu  0.22915740  0.42912118  0.18296017     0.43900
N971        N  0.23292260  0.39366182  0.18216048    -0.34800
N972        N  0.23847802  0.40720127  0.17644417    -0.29100
C973        C  0.25019691  0.40399278  0.16603992    -0.05200
C974        C  0.25192132  0.38765826  0.16520829     0.07000
C975        C  0.24074239  0.38149789  0.17547853     0.00800
H976        H  0.25674581  0.41283761  0.15938525     0.08500
H977        H  0.23851442  0.36908420  0.17799105     0.07600
N978        N  0.21745453  0.44910432  0.19156551    -0.36300
N979        N  0.20697532  0.44890635  0.20327147    -0.28400
C980        C  0.20163708  0.46376326  0.20568320    -0.03700
C981        C  0.20917506  0.47386437  0.19509773     0.04900
C982        C  0.21897696  0.46409109  0.18620930     0.03000
H983        H  0.19280945  0.46696206  0.21444721     0.08100
H984        H  0.22636181  0.46749206  0.17626394     0.07000
N985        N  0.34525415  0.28337582  0.11152972    -0.27400
N986        N  0.34291819  0.29271607  0.12391886    -0.35300
C987        C  0.35052959  0.28665559  0.13654695     0.00900
C988        C  0.35813662  0.27282855  0.13198781     0.06900
C989        C  0.35442142  0.27105212  0.11602290    -0.06200
H990        H  0.35028985  0.29182163  0.14830630     0.07600
H991        H  0.35760745  0.26126413  0.10835732     0.08800
Cu992      Cu  0.32851627  0.31261507  0.12390395     0.44200
Cu993      Cu  0.33546059  0.28778842  0.08927910     0.42000
Cu994      Cu  0.30938385  0.32251237  0.08755535     0.43900
N995        N  0.31160822  0.33033712  0.12213349    -0.34800
N996        N  0.30433416  0.33385784  0.10868755    -0.29100
C997        C  0.29311863  0.34485207  0.11151947    -0.05200
C998        C  0.29327992  0.34831388  0.12758783     0.07000
C999        C  0.30527468  0.33902946  0.13391194     0.00800
H1000       H  0.28527466  0.34973287  0.10258294     0.08500
H1001       H  0.30867252  0.33814555  0.14627700     0.07600
N1002       N  0.31558908  0.30890488  0.06813141    -0.36300
N1003       N  0.32486073  0.29624114  0.06862103    -0.28400
C1004       C  0.32602289  0.29015808  0.05388641    -0.03700
C1005       C  0.31716468  0.29954928  0.04365446     0.04900
C1006       C  0.31063882  0.31121374  0.05315645     0.03000
H1007       H  0.33248692  0.27945657  0.05097355     0.08100
H1008       H  0.30276210  0.32067688  0.04947262     0.07000
N1009       N  0.72738759  0.33031060  0.11110053    -0.27400
N1010       N  0.72022796  0.32493582  0.12398367    -0.35300
C1011       C  0.72624915  0.33232687  0.13678309     0.00900
C1012       C  0.73769522  0.34301214  0.13172781     0.06900
C1013       C  0.73818374  0.34129467  0.11536174    -0.06200
H1014       H  0.72287153  0.32974657  0.14891126     0.07600
H1015       H  0.74632525  0.34698692  0.10720615     0.08800
Cu1016     Cu  0.70375095  0.30677734  0.12368679     0.44200
Cu1017     Cu  0.72271534  0.32164957  0.08852650     0.42000
Cu1018     Cu  0.69559100  0.28772612  0.08612467     0.43900
N1019       N  0.68923030  0.28715915  0.12129661    -0.34800
N1020       N  0.68647069  0.27977828  0.10771727    -0.29100
C1021       C  0.67682999  0.26728304  0.11050984    -0.05200
C1022       C  0.67342089  0.26687781  0.12661691     0.07000
C1023       C  0.68139246  0.27971075  0.13301830     0.00800
H1024       H  0.67235874  0.25933235  0.10145619     0.08500
H1025       H  0.68155605  0.28333559  0.14534395     0.07600
N1026       N  0.70545363  0.29914603  0.06649241    -0.36300
N1027       N  0.71525348  0.31141584  0.06739343    -0.28400
C1028       C  0.71910716  0.31614104  0.05261921    -0.03700
C1029       C  0.71122739  0.30651410  0.04185014     0.04900
C1030       C  0.70283333  0.29577109  0.05109658     0.03000
H1031       H  0.72721350  0.32576534  0.04997697     0.08100
H1032       H  0.69518325  0.28631154  0.04692175     0.07000
N1033       N  0.84774369  0.39414131  0.22245919    -0.27400
N1034       N  0.84359947  0.38083311  0.21521019    -0.35300
C1035       C  0.85106625  0.36857683  0.22221692     0.00900
C1036       C  0.86014463  0.37439312  0.23465915     0.06900
C1037       C  0.85789514  0.39067914  0.23429965    -0.06200
H1038       H  0.84987311  0.35633823  0.21851012     0.07600
H1039       H  0.86298713  0.39936299  0.24229585     0.08800
Cu1040     Cu  0.82682448  0.37951100  0.19716162     0.44200
Cu1041     Cu  0.83930155  0.41642948  0.21628367     0.42000
Cu1042     Cu  0.80881470  0.41669860  0.18629353     0.43900
N1043       N  0.80699864  0.38129238  0.18258521    -0.34800
N1044       N  0.80027623  0.39498534  0.17894435    -0.29100
C1045       C  0.78703379  0.39226329  0.17047418    -0.05200
C1046       C  0.78516377  0.37602215  0.16878479     0.07000
C1047       C  0.79821854  0.36944358  0.17641629     0.00800
H1048       H  0.77916014  0.40146114  0.16616740     0.08500
H1049       H  0.80120233  0.35699683  0.17742563     0.07600
N1050       N  0.81854125  0.43702721  0.19581393    -0.36300
N1051       N  0.82968319  0.43704392  0.20687511    -0.28400
C1052       C  0.83334757  0.45216613  0.21051295    -0.03700
C1053       C  0.82411857  0.46208509  0.20117542     0.04900
C1054       C  0.81476290  0.45207291  0.19213697     0.03000
H1055       H  0.84186254  0.45564475  0.21949494     0.08100
H1056       H  0.80585532  0.45546602  0.18350762     0.07000
N1057       N  0.91923353  0.32811706  0.29198172    -0.27400
N1058       N  0.90604173  0.32388366  0.29933955    -0.35300
C1059       C  0.89364648  0.33106234  0.29229740     0.00900
C1060       C  0.89929361  0.34036093  0.27992201     0.06900
C1061       C  0.91559787  0.33804926  0.28000495    -0.06200
H1062       H  0.88137726  0.32938262  0.29575032     0.07600
H1063       H  0.92415809  0.34264738  0.27160116     0.08800
Cu1064     Cu  0.90550774  0.30755764  0.31775477     0.44200
Cu1065     Cu  0.94134800  0.31944950  0.29820561     0.42000
Cu1066     Cu  0.94281862  0.28909182  0.32913897     0.43900
N1067       N  0.90741429  0.28981248  0.33471361    -0.34800
N1068       N  0.92091345  0.28292153  0.33883449    -0.29100
C1069       C  0.91778262  0.27144145  0.34954151    -0.05200
C1070       C  0.90156142  0.27123180  0.35241552     0.07000
C1071       C  0.89538870  0.28293971  0.34266265     0.00800
H1072       H  0.92663291  0.26368972  0.35471556     0.08500
H1073       H  0.88299379  0.28587085  0.34096703     0.07600
N1074       N  0.96270221  0.29783300  0.31729861    -0.36300
N1075       N  0.96205646  0.30895856  0.30621504    -0.28400
C1076       C  0.97686620  0.31241216  0.30136973    -0.03700
C1077       C  0.98738850  0.30289787  0.30963097     0.04900
C1078       C  0.97800508  0.29387187  0.31972500     0.03000
H1079       H  0.97977069  0.32133802  0.29257874     0.08100
H1080       H  0.98201227  0.28546633  0.32858448     0.07000
N1081       N  0.73660113  0.09955068  0.33506944    -0.27400
N1082       N  0.72971614  0.11288983  0.33045501    -0.35300
C1083       C  0.73773956  0.12526328  0.33655372     0.00900
C1084       C  0.75038654  0.11948272  0.34530832     0.06900
C1085       C  0.74924249  0.10310980  0.34420164    -0.06200
H1086       H  0.73452067  0.13758738  0.33483863     0.07600
H1087       H  0.75666296  0.09440732  0.35006088     0.08800
Cu1088     Cu  0.70987634  0.11400109  0.31593681     0.44200
Cu1089     Cu  0.72800769  0.07718837  0.32936422     0.42000
Cu1090     Cu  0.69624288  0.07716761  0.29997150     0.43900
N1091       N  0.69239015  0.11247193  0.29870000    -0.34800
N1092       N  0.68790837  0.09890990  0.29224088    -0.29100
C1093       C  0.67740057  0.10187137  0.28057677    -0.05200
C1094       C  0.67486191  0.11813678  0.27983518     0.07000
C1095       C  0.68471284  0.12443899  0.29146494     0.00800
H1096       H  0.67246254  0.09282585  0.27292191     0.08500
H1097       H  0.68638633  0.13685738  0.29432216     0.07600
N1098       N  0.70459700  0.05705457  0.31128988    -0.36300
N1099       N  0.71608187  0.05693379  0.32200843    -0.28400
C1100       C  0.71849207  0.04188933  0.32685355    -0.03700
C1101       C  0.70790135  0.03212628  0.31887535     0.04900
C1102       C  0.69938500  0.04215773  0.30904900     0.03000
H1103       H  0.72762168  0.03832359  0.33516518     0.08100
H1104       H  0.69012850  0.03885500  0.30075347     0.07000
N1105       N  0.85018304  0.21487840  0.40756570    -0.27400
N1106       N  0.84737640  0.20720931  0.39414287    -0.35300
C1107       C  0.85638023  0.21351777  0.38254570     0.00900
C1108       C  0.86527461  0.22575677  0.38894415     0.06900
C1109       C  0.86094201  0.22640026  0.40478732    -0.06200
H1110       H  0.85588210  0.20998464  0.37020268     0.07600
H1111       H  0.86501245  0.23487832  0.41354809     0.08800
Cu1112     Cu  0.83024910  0.18968557  0.39159465     0.44200
Cu1113     Cu  0.83861155  0.20989460  0.42885331     0.42000
Cu1114     Cu  0.80659382  0.18115235  0.42617778     0.43900
N1115       N  0.81130841  0.17394043  0.39152749    -0.34800
N1116       N  0.80247506  0.17104676  0.40417909    -0.29100
C1117       C  0.79065476  0.16108102  0.40015226    -0.05200
C1118       C  0.79209747  0.15759401  0.38417636     0.07000
C1119       C  0.80539375  0.16581498  0.37910369     0.00800
H1120       H  0.78159198  0.15683730  0.40822313     0.08500
H1121       H  0.81009684  0.16628648  0.36715658     0.07600
N1122       N  0.81314391  0.19232264  0.44704766    -0.36300
N1123       N  0.82490586  0.20269136  0.44815189    -0.28400
C1124       C  0.82636214  0.20720380  0.46341431    -0.03700
C1125       C  0.81482998  0.19945836  0.47228868     0.04900
C1126       C  0.80679250  0.19000147  0.46150949     0.03000
H1127       H  0.83525466  0.21541536  0.46776856     0.08100
H1128       H  0.79739493  0.18159446  0.46403418     0.07000
N1129       N  0.61679523  0.16719510  0.22411117    -0.27400
N1130       N  0.62976902  0.17131703  0.21627652    -0.35300
C1131       C  0.64240795  0.16422042  0.22294004     0.00900
C1132       C  0.63722894  0.15533841  0.23575899     0.06900
C1133       C  0.62088090  0.15731254  0.23601056    -0.06200
H1134       H  0.65449111  0.16556543  0.21877994     0.07600
H1135       H  0.61262720  0.15231097  0.24450551     0.08800
Cu1136     Cu  0.63017933  0.18739373  0.19772845     0.44200
Cu1137     Cu  0.59435159  0.17597748  0.21863862     0.42000
Cu1138     Cu  0.59354448  0.20699768  0.18821734     0.43900
N1139       N  0.62859613  0.20568677  0.18143280    -0.34800
N1140       N  0.61521953  0.21319580  0.17812239    -0.29100
C1141       C  0.61833505  0.22498731  0.16776454    -0.05200
C1142       C  0.63448027  0.22491179  0.16450114     0.07000
C1143       C  0.64055521  0.21241704  0.17326525     0.00800
H1144       H  0.60949421  0.23298392  0.16297082     0.08500
H1145       H  0.65285581  0.20876219  0.17399991     0.07600
N1146       N  0.57345759  0.19815774  0.19957267    -0.36300
N1147       N  0.57370595  0.18692463  0.21056647    -0.28400
C1148       C  0.55872623  0.18403877  0.21538037    -0.03700
C1149       C  0.54850619  0.19377975  0.20688566     0.04900
C1150       C  0.55833001  0.20267475  0.19711376     0.03000
H1151       H  0.55560060  0.17572051  0.22466450     0.08100
H1152       H  0.55473352  0.21176065  0.18875969     0.07000
C1153       C  0.64155140  0.13092249  0.25177656    -0.09300
C1154       C  0.64698968  0.14592907  0.24695102     0.06900
C1155       C  0.66142689  0.15173925  0.25320180    -0.03100
C1156       C  0.67028495  0.14236335  0.26364398    -0.07500
C1157       C  0.66499265  0.12724431  0.26838062     0.06000
C1158       C  0.65030377  0.12160557  0.26243012    -0.02500
Br1159     Br  0.64067589  0.10205643  0.26921065    -0.02200
H1160       H  0.63033871  0.12643579  0.24729483     0.09900
H1161       H  0.68138630  0.14705102  0.26817219     0.07900
Br1162     Br  0.66908592  0.17288147  0.24923779    -0.02700
C1163       C  0.78774584  0.13562918  0.36500388    -0.09300
C1164       C  0.78136190  0.14781605  0.37438464     0.06900
C1165       C  0.76488563  0.15070278  0.37394158    -0.03100
C1166       C  0.75510159  0.14133480  0.36436141    -0.07500
C1167       C  0.76138616  0.12892861  0.35520282     0.06000
C1168       C  0.77791236  0.12612231  0.35551678    -0.02500
Br1169     Br  0.78786806  0.11030347  0.34249794    -0.02200
H1170       H  0.80043857  0.13348182  0.36508811     0.09900
H1171       H  0.74245878  0.14374045  0.36411602     0.07900
Br1172     Br  0.75518244  0.16792688  0.38526825    -0.02700
C1173       C  0.87139396  0.25345312  0.38102848    -0.09300
C1174       C  0.87517037  0.23726895  0.38015627     0.06900
C1175       C  0.88799021  0.23239366  0.37059715    -0.03100
C1176       C  0.89667900  0.24368021  0.36197877    -0.07500
C1177       C  0.89259389  0.25985427  0.36242668     0.06000
C1178       C  0.87985531  0.26471846  0.37219167    -0.02500
Br1179     Br  0.87383087  0.28656868  0.37462401    -0.02200
H1180       H  0.86160146  0.25732692  0.38841652     0.09900
H1181       H  0.90646200  0.23974103  0.35461933     0.07900
Br1182     Br  0.89442998  0.21057270  0.36933473    -0.02700
C1183       C  0.88470977  0.37188251  0.25085140    -0.09300
C1184       C  0.87008955  0.36539617  0.24605784     0.06900
C1185       C  0.86510792  0.35082312  0.25272166    -0.03100
C1186       C  0.87489189  0.34291504  0.26356017    -0.07500
C1187       C  0.88961038  0.34927505  0.26821127     0.06000
C1188       C  0.89442745  0.36404727  0.26184498    -0.02500
Br1189     Br  0.91336365  0.37489436  0.26854203    -0.02200
H1190       H  0.88858098  0.38320397  0.24608616     0.09900
H1191       H  0.87087277  0.33170679  0.26846008     0.07900
Br1192     Br  0.84455700  0.34168053  0.24880525    -0.02700
C1193       C  0.65498265  0.22939982  0.14377013    -0.09300
C1194       C  0.64362322  0.23580516  0.15416479     0.06900
C1195       C  0.64194550  0.25245103  0.15509248    -0.03100
C1196       C  0.65157165  0.26227948  0.14576447    -0.07500
C1197       C  0.66288258  0.25587850  0.13534882     0.06000
C1198       C  0.66453204  0.23925430  0.13434904    -0.02500
Br1199     Br  0.68050193  0.22940408  0.12143849    -0.02200
H1200       H  0.65656264  0.21664458  0.14310342     0.09900
H1201       H  0.65036515  0.27505143  0.14681578     0.07900
Br1202     Br  0.62786531  0.26258572  0.16986003    -0.02700
C1203       C  0.75443510  0.34540288  0.15592887    -0.09300
C1204       C  0.74875665  0.35223506  0.14180826     0.06900
C1205       C  0.75406276  0.36752913  0.13749381    -0.03100
C1206       C  0.76583480  0.37504153  0.14649560    -0.07500
C1207       C  0.77221309  0.36780761  0.16012813     0.06000
C1208       C  0.76586697  0.35311706  0.16520368    -0.02500
Br1209     Br  0.77116082  0.34351801  0.18521562    -0.02200
H1210       H  0.75008541  0.33389764  0.15973530     0.09900
H1211       H  0.77007962  0.38659385  0.14271749     0.07900
Br1212     Br  0.74487004  0.37929208  0.12023999    -0.02700
C1213       C  0.28905183  0.36932737  0.14777204    -0.09300
C1214       C  0.28252913  0.35891350  0.13648192     0.06900
C1215       C  0.26587022  0.35825326  0.13459377    -0.03100
C1216       C  0.25614338  0.36797021  0.14387778    -0.07500
C1217       C  0.26269802  0.37844741  0.15502820     0.06000
C1218       C  0.27928445  0.37908892  0.15699304    -0.02500
Br1219     Br  0.28902543  0.39213313  0.17294320    -0.02200
H1220       H  0.30180060  0.36975534  0.14953631     0.09900
H1221       H  0.24335425  0.36716640  0.14257511     0.07900
Br1222     Br  0.25555431  0.34333337  0.12075373    -0.02700
C1223       C  0.50452072  0.18430729  0.21234242    -0.09300
C1224       C  0.49777172  0.19953632  0.21171074     0.06900
C1225       C  0.50781924  0.21277172  0.20942589    -0.03100
C1226       C  0.52422865  0.21056991  0.20782155    -0.07500
C1227       C  0.53101093  0.19533745  0.20850027     0.06000
C1228       C  0.52091341  0.18208150  0.21060768    -0.02500
Br1229     Br  0.52841318  0.16056786  0.20986246    -0.02200
H1230       H  0.49693214  0.17399744  0.21378644     0.09900
H1231       H  0.53177783  0.22090111  0.20634371     0.07900
Br1232     Br  0.50007969  0.23421231  0.20951512    -0.02700
C1233       C  0.38882788  0.24412892  0.14895347    -0.09300
C1234       C  0.38315057  0.24212648  0.16451725     0.06900
C1235       C  0.36924730  0.25024251  0.16915015    -0.03100
C1236       C  0.36123995  0.25983562  0.15823061    -0.07500
C1237       C  0.36683812  0.26181736  0.14264491     0.06000
C1238       C  0.38086504  0.25387253  0.13804305    -0.02500
Br1239     Br  0.39057096  0.25682671  0.11763094    -0.02200
H1240       H  0.39962432  0.23817967  0.14528263     0.09900
H1241       H  0.35060599  0.26596545  0.16206501     0.07900
Br1242     Br  0.36131199  0.25011570  0.19053032    -0.02700
C1243       C  0.36532742  0.13693544  0.26989004    -0.09300
C1244       C  0.36837230  0.13850455  0.28619764     0.06900
C1245       C  0.38002472  0.14941796  0.29130339    -0.03100
C1246       C  0.38830338  0.15857988  0.28013035    -0.07500
C1247       C  0.38497576  0.15728881  0.26384192     0.06000
C1248       C  0.37340159  0.14626742  0.25873948    -0.02500
Br1249     Br  0.36879337  0.14267894  0.23669506    -0.02200
H1250       H  0.35652444  0.12846558  0.26580019     0.09900
H1251       H  0.39727974  0.16687485  0.28419886     0.07900
Br1252     Br  0.38574834  0.15163410  0.31325401    -0.02700
C1253       C  0.26078851  0.12844592  0.37432294    -0.09300
C1254       C  0.27698793  0.13037560  0.37780947     0.06900
C1255       C  0.28151100  0.14089526  0.39000986    -0.03100
C1256       C  0.26998058  0.14987319  0.39787757    -0.07500
C1257       C  0.25383636  0.14862290  0.39380721     0.06000
C1258       C  0.24922853  0.13745626  0.38217558    -0.02500
Br1259     Br  0.22736880  0.13343269  0.37701989    -0.02200
H1260       H  0.25712660  0.12016113  0.36517984     0.09900
H1261       H  0.27373482  0.15816453  0.40697265     0.07900
Br1262     Br  0.30316323  0.14296865  0.39689043    -0.02700
C1263       C  0.03099411  0.29133861  0.30854057    -0.09300
C1264       C  0.03836565  0.30630510  0.30820728     0.06900
C1265       C  0.02884598  0.32007946  0.30820744    -0.03100
C1266       C  0.01228992  0.31864930  0.30848595    -0.07500
C1267       C  0.00491951  0.30367743  0.30894248     0.06000
C1268       C  0.01444036  0.28991274  0.30878898    -0.02500
Br1269     Br  0.00562168  0.26890121  0.30771858    -0.02200
H1270       H  0.03816404  0.28065844  0.30833091     0.09900
H1271       H  0.00512999  0.32933345  0.30876097     0.07900
Br1272     Br  0.03763402  0.34111735  0.30917628    -0.02700
C1273       C  0.16853006  0.35387300  0.26465161    -0.09300
C1274       C  0.15241989  0.35773364  0.26675735     0.06900
C1275       C  0.14638068  0.37145676  0.25914023    -0.03100
C1276       C  0.15630409  0.38055836  0.24934646    -0.07500
C1277       C  0.17226971  0.37641147  0.24704406     0.06000
C1278       C  0.17845318  0.36310038  0.25508634    -0.02500
Br1279     Br  0.20059063  0.35757598  0.25459842    -0.02200
H1280       H  0.17354904  0.34357518  0.27049665     0.09900
H1281       H  0.15149089  0.39093704  0.24344463     0.07900
Br1282     Br  0.12522528  0.37930502  0.26235519    -0.02700
C1283       C  0.16285634  0.27257270  0.36814381    -0.09300
C1284       C  0.15204849  0.26529001  0.35774422     0.06900
C1285       C  0.15054334  0.24860364  0.35791246    -0.03100
C1286       C  0.15965774  0.23959737  0.36849888    -0.07500
C1287       C  0.17029665  0.24689437  0.37908678     0.06000
C1288       C  0.17192602  0.26358820  0.37877405    -0.02500
Br1289     Br  0.18714485  0.27481853  0.39154218    -0.02200
H1290       H  0.16428641  0.28536795  0.36798223     0.09900
H1291       H  0.15843033  0.22678218  0.36843797     0.07900
Br1292     Br  0.13722841  0.23732124  0.34322049    -0.02700
C1293       C  0.83574082  0.50565518  0.20213972    -0.09300
C1294       C  0.82076132  0.51296258  0.20242123     0.06900
C1295       C  0.80697638  0.50340865  0.20218084    -0.03100
C1296       C  0.80839366  0.48688799  0.20166271    -0.07500
C1297       C  0.82335916  0.47958051  0.20148554     0.06000
C1298       C  0.83714279  0.48911178  0.20151938    -0.02500
Br1299     Br  0.85807621  0.48033682  0.19939983    -0.02200
H1300       H  0.84641377  0.51287031  0.20203359     0.09900
H1301       H  0.79771272  0.47968239  0.20173992     0.07900
Br1302     Br  0.78591944  0.51202479  0.20373703    -0.02700
C1303       C  0.86262371  0.65226883  0.26793199    -0.09300
C1304       C  0.87735884  0.64654508  0.27320426     0.06900
C1305       C  0.88268442  0.63160369  0.26786267    -0.03100
C1306       C  0.87350751  0.62295800  0.25707146    -0.07500
C1307       C  0.85894135  0.62883282  0.25147900     0.06000
C1308       C  0.85337431  0.64357742  0.25722493    -0.02500
Br1309     Br  0.83282962  0.65205582  0.25205417    -0.02200
H1310       H  0.85825763  0.66360424  0.27216201     0.09900
H1311       H  0.87784216  0.61155944  0.25298999     0.07900
Br1312     Br  0.90169807  0.62173761  0.27569698    -0.02700
C1313       C  0.86310333  0.74338398  0.35585984    -0.09300
C1314       C  0.87747401  0.73854409  0.36282078     0.06900
C1315       C  0.88150645  0.74433958  0.37800501    -0.03100
C1316       C  0.87117557  0.75467388  0.38588990    -0.07500
C1317       C  0.85673169  0.75940599  0.37899110     0.06000
C1318       C  0.85272956  0.75363434  0.36375162    -0.02500
Br1319     Br  0.83275701  0.75786902  0.35353536    -0.02200
H1320       H  0.85976031  0.73894665  0.34425160     0.09900
H1321       H  0.87438485  0.75888665  0.39761707     0.07900
Br1322     Br  0.90012411  0.73755192  0.38927737    -0.02700
C1323       C  0.70607960  0.98916939  0.33279071    -0.09300
C1324       C  0.70379591  0.98125351  0.31829559     0.06900
C1325       C  0.70337529  0.99013113  0.30410980    -0.03100
C1326       C  0.70478960  0.00663476  0.30467709    -0.07500
C1327       C  0.70682596  0.01461735  0.31916395     0.06000
C1328       C  0.70750633  0.00572233  0.33336144    -0.02500
Br1329     Br  0.70902995  0.01541024  0.35393737    -0.02200
H1330       H  0.70630882  0.98247908  0.34378894     0.09900
H1331       H  0.70455019  0.01326671  0.29364483     0.07900
Br1332     Br  0.70207400  0.98045063  0.28350784    -0.02700
C1333       C  0.64792505  0.87571055  0.25932936    -0.09300
C1334       C  0.64390116  0.87348339  0.27534878     0.06900
C1335       C  0.63132158  0.86316861  0.27930773    -0.03100
C1336       C  0.62341052  0.85479517  0.26732567    -0.07500
C1337       C  0.62802920  0.85637733  0.25139577     0.06000
C1338       C  0.64016557  0.86716828  0.24737670    -0.02500
Br1339     Br  0.64620894  0.87096570  0.22573356    -0.02200
H1340       H  0.65743418  0.88379470  0.25613768     0.09900
H1341       H  0.61390849  0.84669434  0.27049840     0.07900
Br1342     Br  0.62420576  0.86051025  0.30079459    -0.02700
C1343       C  0.76589085  0.85589396  0.36937198    -0.09300
C1344       C  0.76020838  0.84589832  0.38143954     0.06900
C1345       C  0.74370894  0.84515236  0.38436854    -0.03100
C1346       C  0.73330080  0.85441493  0.37530094    -0.07500
C1347       C  0.73905611  0.86461870  0.36345191     0.06000
C1348       C  0.75551927  0.86527140  0.36045516    -0.02500
Br1349     Br  0.76448643  0.87789274  0.34369182    -0.02200
H1350       H  0.77851001  0.85645305  0.36687943     0.09900
H1351       H  0.72064584  0.85371865  0.37757176     0.07900
Br1352     Br  0.73453154  0.83102125  0.39975001    -0.02700
C1353       C  0.64098965  0.72685077  0.16103548    -0.09300
C1354       C  0.65367853  0.73262458  0.15191927     0.06900
C1355       C  0.65776776  0.74881760  0.15286020    -0.03100
C1356       C  0.64886025  0.75904977  0.16240929    -0.07500
C1357       C  0.63575430  0.75345974  0.17109558     0.06000
C1358       C  0.63198495  0.73709851  0.17054282    -0.02500
Br1359     Br  0.61540618  0.72782223  0.18318016    -0.02200
H1360       H  0.63799372  0.71433187  0.16064998     0.09900
H1361       H  0.65207249  0.77150913  0.16284684     0.07900
Br1362     Br  0.67589918  0.75739996  0.14200614    -0.02700
C1363       C  0.76265132  0.64637917  0.14012130    -0.09300
C1364       C  0.74658556  0.64283987  0.14284647     0.06900
C1365       C  0.74258969  0.63011443  0.15297733    -0.03100
C1366       C  0.75462111  0.62144074  0.16045585    -0.07500
C1367       C  0.77067265  0.62533647  0.15814775     0.06000
C1368       C  0.77467308  0.63782340  0.14771850    -0.02500
Br1369     Br  0.79627895  0.64320141  0.14270933    -0.02200
H1370       H  0.76587683  0.65599691  0.13218581     0.09900
H1371       H  0.75140560  0.61175668  0.16831320     0.07900
Br1372     Br  0.72102728  0.62348814  0.15636510    -0.02700
C1373       C  0.30373724  0.99731153  0.31307172    -0.09300
C1374       C  0.31771600  0.98832736  0.31409258     0.06900
C1375       C  0.33230623  0.99611184  0.31673177    -0.03100
C1376       C  0.33269985  0.01265568  0.31836699    -0.07500
C1377       C  0.31868845  0.02165144  0.31756281     0.06000
C1378       C  0.30412966  0.01386139  0.31462025    -0.02500
Br1379     Br  0.28463668  0.02526206  0.31150558    -0.02200
H1380       H  0.29248856  0.99143209  0.31085778     0.09900
H1381       H  0.34394717  0.01847903  0.32072111     0.07900
Br1382     Br  0.35180134  0.98461875  0.31944189    -0.02700
C1383       C  0.49520030  0.80527742  0.18506172    -0.09300
C1384       C  0.48641670  0.80758521  0.19905320     0.06900
C1385       C  0.49454041  0.80890572  0.21366552    -0.03100
C1386       C  0.51112200  0.80851005  0.21392349    -0.07500
C1387       C  0.51985264  0.80637056  0.19991892     0.06000
C1388       C  0.51177268  0.80462333  0.18537981    -0.02500
Br1389     Br  0.52266593  0.80248786  0.16547285    -0.02200
H1390       H  0.48917216  0.80432169  0.17373006     0.09900
H1391       H  0.51724924  0.80955554  0.22520084     0.07900
Br1392     Br  0.48389270  0.80992883  0.23380175    -0.02700
C1393       C  0.36125957  0.86681365  0.23323666    -0.09300
C1394       C  0.37164519  0.85503688  0.23878608     0.06900
C1395       C  0.37313126  0.85250187  0.25526451    -0.03100
C1396       C  0.36443735  0.86184405  0.26585222    -0.07500
C1397       C  0.35431771  0.87390333  0.26035604     0.06000
C1398       C  0.35269387  0.87630837  0.24384347    -0.02500
Br1399     Br  0.33828228  0.89159002  0.23500095    -0.02200
H1400       H  0.35991398  0.86873008  0.22057899     0.09900
H1401       H  0.36566004  0.85971584  0.27848765     0.07900
Br1402     Br  0.38606103  0.83585556  0.26397984    -0.02700
C1403       C  0.36578844  0.77009877  0.13324783    -0.09300
C1404       C  0.37700514  0.76507076  0.14448505     0.06900
C1405       C  0.37995485  0.74866660  0.14637975    -0.03100
C1406       C  0.37140393  0.73765872  0.13734156    -0.07500
C1407       C  0.36023417  0.74271349  0.12609057     0.06000
C1408       C  0.35757087  0.75909931  0.12391066    -0.02500
Br1409     Br  0.34223813  0.76712051  0.10905423    -0.02200
H1410       H  0.36343849  0.78266044  0.13170037     0.09900
H1411       H  0.37347820  0.72507472  0.13909770     0.07900
Br1412     Br  0.39467977  0.74044948  0.16174898    -0.02700
C1413       C  0.21543436  0.51813728  0.18803032    -0.09300
C1414       C  0.19985754  0.52393933  0.18937194     0.06900
C1415       C  0.18742420  0.51313780  0.19254608    -0.03100
C1416       C  0.19076535  0.49695340  0.19445220    -0.07500
C1417       C  0.20635207  0.49114265  0.19311304     0.06000
C1418       C  0.21879217  0.50197160  0.18997903    -0.02500
Br1419     Br  0.24074316  0.49579839  0.18949996    -0.02200
H1420       H  0.22515107  0.52630130  0.18581929     0.09900
H1421       H  0.18103964  0.48880191  0.19666262     0.07900
Br1422     Br  0.16553661  0.51948241  0.19320477    -0.02700
C1423       C  0.23480919  0.64901101  0.12796045    -0.09300
C1424       C  0.23961597  0.63701791  0.13847956     0.06900
C1425       C  0.25596061  0.63468556  0.14131443    -0.03100
C1426       C  0.26715179  0.64428822  0.13363065    -0.07500
C1427       C  0.26236580  0.65613353  0.12293238     0.06000
C1428       C  0.24600576  0.65847185  0.12010017    -0.02500
Br1429     Br  0.23819028  0.67510458  0.10658324    -0.02200
H1430       H  0.22226562  0.65107909  0.12591822     0.09900
H1431       H  0.27967646  0.64246071  0.13598910     0.07900
Br1432     Br  0.26366221  0.61939418  0.15637452    -0.02700
C1433       C  0.27803611  0.86174108  0.36909620    -0.09300
C1434       C  0.27268890  0.87461255  0.35996049     0.06900
C1435       C  0.25623804  0.87769984  0.35900847    -0.03100
C1436       C  0.24551799  0.86790574  0.36707282    -0.07500
C1437       C  0.25086936  0.85513019  0.37630807     0.06000
C1438       C  0.26731832  0.85208493  0.37735036    -0.02500
Br1439     Br  0.27580236  0.83429082  0.38883542    -0.02200
H1440       H  0.29062542  0.85912051  0.36972104     0.09900
H1441       H  0.23290082  0.87028515  0.36612652     0.07900
Br1442     Br  0.24750382  0.89425431  0.34597638    -0.02700
C1443       C  0.01677927  0.69201994  0.30008262    -0.09300
C1444       C  0.02534080  0.69203921  0.31437761     0.06900
C1445       C  0.01698563  0.69206314  0.32888705    -0.03100
C1446       C  0.00037673  0.69257770  0.32886011    -0.07500
C1447       C  0.99180058  0.69283145  0.31456050     0.06000
C1448       C  0.00017574  0.69249422  0.30003320    -0.02500
Br1449     Br  0.98987774  0.69403044  0.27972882    -0.02200
H1450       H  0.02305757  0.69216077  0.28885245     0.09900
H1451       H  0.99411343  0.69249244  0.34009813     0.07900
Br1452     Br  0.02749008  0.69027740  0.34905255    -0.02700
C1453       C  0.15721756  0.63716016  0.24916325    -0.09300
C1454       C  0.15242415  0.63858321  0.23326755     0.06900
C1455       C  0.14005092  0.64916097  0.22937228    -0.03100
C1456       C  0.13252321  0.65786709  0.24136753    -0.07500
C1457       C  0.13746594  0.65662691  0.25725014     0.06000
C1458       C  0.15003001  0.64623511  0.26109445    -0.02500
Br1459     Br  0.15734155  0.64335562  0.28249125    -0.02200
H1460       H  0.16674440  0.62908980  0.25228245     0.09900
H1461       H  0.12285746  0.66577367  0.23825642     0.07900
Br1462     Br  0.13254716  0.65165886  0.20798704    -0.02700
C1463       C  0.13119201  0.75165666  0.36685446    -0.09300
C1464       C  0.13735728  0.74795466  0.35178607     0.06900
C1465       C  0.15114063  0.75598780  0.34655574    -0.03100
C1466       C  0.15878529  0.76679491  0.35659045    -0.07500
C1467       C  0.15287062  0.77021913  0.37180201     0.06000
C1468       C  0.13868533  0.76273916  0.37677827    -0.02500
Br1469     Br  0.12818339  0.76797111  0.39631815    -0.02200
H1470       H  0.12042264  0.74592242  0.37096768     0.09900
H1471       H  0.16949609  0.77256514  0.35238900     0.07900
Br1472     Br  0.15950465  0.75401247  0.32543939    -0.02700
C1473       C  0.22640485  0.21392614  0.52460242    -0.09300
C1474       C  0.21112601  0.21329668  0.53124248     0.06900
C1475       C  0.19776139  0.21443838  0.52114755    -0.03100
C1476       C  0.19992036  0.21583823  0.50473856    -0.07500
C1477       C  0.21520176  0.21594021  0.49810749     0.06000
C1478       C  0.22852698  0.21533949  0.50820456    -0.02500
Br1479     Br  0.24983419  0.21710604  0.50029111    -0.02200
H1480       H  0.23676799  0.21336265  0.53222624     0.09900
H1481       H  0.18958424  0.21610173  0.49706069     0.07900
Br1482     Br  0.17631473  0.21251863  0.52868527    -0.02700
C1483       C  0.32235021  0.29123990  0.99957378    -0.09300
C1484       C  0.30688199  0.29394424  0.99389222     0.06900
C1485       C  0.29486131  0.29813021  0.00477655    -0.03100
C1486       C  0.29853857  0.29978618  0.02087404    -0.07500
C1487       C  0.31401954  0.29721335  0.02653562     0.06000
C1488       C  0.32602541  0.29290695  0.01569143    -0.02500
Br1489     Br  0.34787659  0.29047264  0.02177416    -0.02200
H1490       H  0.33178357  0.28825241  0.99136056     0.09900
H1491       H  0.28913572  0.30289425  0.02908155     0.07900
Br1492     Br  0.27300576  0.30073344  0.99876351    -0.02700
C1493       C  0.36776166  0.24451081  0.85932852    -0.09300
C1494       C  0.36886469  0.22829250  0.86293372     0.06900
C1495       C  0.35937014  0.22196109  0.87518340    -0.03100
C1496       C  0.34879480  0.23181513  0.88337335    -0.07500
C1497       C  0.34735936  0.24798895  0.87949675     0.06000
C1498       C  0.35715081  0.25436686  0.86743186    -0.02500
Br1499     Br  0.35761452  0.27655682  0.86213821    -0.02200
H1500       H  0.37513949  0.24954203  0.85005227     0.09900
H1501       H  0.34158266  0.22677717  0.89277193     0.07900
Br1502     Br  0.36105580  0.20021744  0.88185834    -0.02700
C1503       C  0.24667655  0.12361645  0.65657762    -0.09300
C1504       C  0.26306208  0.12682832  0.65712542     0.06900
C1505       C  0.26919858  0.13925934  0.64764718    -0.03100
C1506       C  0.25889779  0.14877142  0.63872973    -0.07500
C1507       C  0.24244400  0.14615690  0.63894642     0.06000
C1508       C  0.23637949  0.13314800  0.64759534    -0.02500
Br1509     Br  0.21430782  0.12743347  0.64690144    -0.02200
H1510       H  0.24179378  0.11388010  0.66344646     0.09900
H1511       H  0.26376694  0.15848268  0.63180969     0.07900
Br1512     Br  0.29155369  0.14335334  0.64558479    -0.02700
C1513       C  0.36516691  0.13179458  0.77536845    -0.09300
C1514       C  0.37622830  0.14257602  0.76901207     0.06900
C1515       C  0.37704881  0.14446809  0.75234377    -0.03100
C1516       C  0.36686014  0.13570127  0.74252441    -0.07500
C1517       C  0.35587785  0.12493822  0.74895345     0.06000
C1518       C  0.35505346  0.12302914  0.76554549    -0.02500
Br1519     Br  0.33944967  0.10971019  0.77554843    -0.02200
H1520       H  0.36420908  0.13032313  0.78811674     0.09900
H1521       H  0.36742972  0.13737964  0.72977517     0.07900
Br1522     Br  0.39068962  0.15967125  0.74217153    -0.02700
C1523       C  0.26412259  0.37002424  0.86305043    -0.09300
C1524       C  0.24746521  0.36960871  0.86380340     0.06900
C1525       C  0.24004318  0.35977095  0.87518417    -0.03100
C1526       C  0.24922790  0.34976963  0.88474625    -0.07500
C1527       C  0.26578984  0.34934614  0.88316139     0.06000
C1528       C  0.27329999  0.35996189  0.87260812    -0.02500
Br1529     Br  0.29601200  0.36146358  0.87119671    -0.02200
H1530       H  0.27000038  0.37780220  0.85463756     0.09900
H1531       H  0.24336329  0.34191285  0.89309851     0.07900
Br1532     Br  0.21749117  0.35987574  0.87861361    -0.02700
C1533       C  0.14155333  0.23363581  0.65406858    -0.09300
C1534       C  0.15272937  0.24123065  0.64427511     0.06900
C1535       C  0.15328069  0.25798532  0.64399030    -0.03100
C1536       C  0.14286229  0.26671817  0.65346523    -0.07500
C1537       C  0.13182416  0.25915629  0.66341938     0.06000
C1538       C  0.13112084  0.24240414  0.66358073    -0.02500
Br1539     Br  0.11732809  0.23073375  0.67750118    -0.02200
H1540       H  0.14106947  0.22077781  0.65448240     0.09900
H1541       H  0.14365726  0.27956841  0.65332973     0.07900
Br1542     Br  0.16896002  0.26976193  0.63230502    -0.02700
C1543       C  0.15342600  0.37280280  0.75737786    -0.09300
C1544       C  0.15365095  0.36971055  0.77376979     0.06900
C1545       C  0.14353440  0.35783235  0.77995998    -0.03100
C1546       C  0.13378873  0.34907703  0.76971913    -0.07500
C1547       C  0.13405258  0.35177147  0.75328621     0.06000
C1548       C  0.14383642  0.36389031  0.74713243    -0.02500
Br1549     Br  0.14406271  0.36921963  0.72496525    -0.02200
H1550       H  0.16099021  0.38198928  0.75244929     0.09900
H1551       H  0.12616681  0.33990419  0.77459112     0.07900
Br1552     Br  0.14186075  0.35349768  0.80228474    -0.02700
C1553       C  0.22619176  0.79561452  0.51016569    -0.09300
C1554       C  0.21238760  0.79632736  0.51945925     0.06900
C1555       C  0.19765096  0.79925277  0.51204226    -0.03100
C1556       C  0.19683585  0.80069649  0.49555538    -0.07500
C1557       C  0.21055724  0.79974062  0.48619375     0.06000
C1558       C  0.22540811  0.79730350  0.49363254    -0.02500
Br1559     Br  0.24483762  0.79517992  0.48188444    -0.02200
H1560       H  0.23758539  0.79347088  0.51576987     0.09900
H1561       H  0.18543342  0.80301516  0.49003962     0.07900
Br1562     Br  0.17845100  0.80286741  0.52380313    -0.02700
C1563       C  0.21761707  0.50815252  0.81316968    -0.09300
C1564       C  0.21551563  0.51462676  0.79795437     0.06900
C1565       C  0.21348492  0.50435791  0.78491845    -0.03100
C1566       C  0.21313860  0.48791459  0.78735799    -0.07500
C1567       C  0.21494543  0.48143520  0.80264085     0.06000
C1568       C  0.21725217  0.49175259  0.81564142    -0.02500
Br1569     Br  0.21840012  0.48449689  0.83723857    -0.02200
H1570       H  0.21897076  0.51593018  0.82332981     0.09900
H1571       H  0.21153588  0.48013275  0.77723739     0.07900
Br1572     Br  0.21199202  0.51207556  0.76351616    -0.02700
C1573       C  0.14829489  0.72522244  0.63552296    -0.09300
C1574       C  0.13829386  0.73138345  0.64731404     0.06900
C1575       C  0.13825901  0.74789697  0.65011995    -0.03100
C1576       C  0.14809376  0.75787908  0.64116212    -0.07500
C1577       C  0.15804639  0.75177439  0.62927103     0.06000
C1578       C  0.15807064  0.73521408  0.62646712    -0.02500
Br1579     Br  0.17207232  0.72524038  0.61151254    -0.02200
H1580       H  0.14859567  0.71252488  0.63343349     0.09900
H1581       H  0.14806543  0.77051270  0.64361662     0.07900
Br1582     Br  0.12611109  0.75738636  0.66689881    -0.02700
C1583       C  0.15400176  0.62099845  0.74772320    -0.09300
C1584       C  0.15378256  0.62522575  0.76385834     0.06900
C1585       C  0.14405703  0.63797980  0.76875908    -0.03100
C1586       C  0.13503092  0.64629808  0.75752328    -0.07500
C1587       C  0.13565857  0.64230912  0.74136277     0.06000
C1588       C  0.14513688  0.62943716  0.73650871    -0.02500
Br1589     Br  0.14583569  0.62235823  0.71486126    -0.02200
H1590       H  0.16131725  0.61121232  0.74372392     0.09900
H1591       H  0.12765520  0.65609701  0.76139607     0.07900
Br1592     Br  0.14190440  0.64416735  0.79059357    -0.02700
C1593       C  0.30867483  0.98626029  0.71876346    -0.09300
C1594       C  0.30587037  0.97918705  0.70391678     0.06900
C1595       C  0.30143609  0.98894188  0.69101275    -0.03100
C1596       C  0.30011032  0.00535564  0.69311451    -0.07500
C1597       C  0.30325923  0.01249833  0.70785273     0.06000
C1598       C  0.30732285  0.00270188  0.72087017    -0.02500
Br1599     Br  0.31027578  0.01072445  0.74201075    -0.02200
H1600       H  0.31181850  0.97892457  0.72886567     0.09900
H1601       H  0.29717498  0.01264655  0.68292457     0.07900
Br1602     Br  0.29851917  0.98104685  0.66982274    -0.02700
C1603       C  0.27594504  0.85095175  0.64544120    -0.09300
C1604       C  0.26937215  0.86345900  0.65428365     0.06900
C1605       C  0.25281931  0.86616249  0.65344084    -0.03100
C1606       C  0.24330460  0.85653328  0.64375949    -0.07500
C1607       C  0.24996500  0.84424440  0.63474173     0.06000
C1608       C  0.26643137  0.84141585  0.63569763    -0.02500
Br1609     Br  0.27636958  0.82399435  0.62489083    -0.02200
H1610       H  0.28857553  0.84856575  0.64610799     0.09900
H1611       H  0.23060550  0.85860407  0.64331619     0.07900
Br1612     Br  0.24222423  0.88185425  0.66611591    -0.02700
C1613       C  0.37038413  0.85551229  0.74007738    -0.09300
C1614       C  0.36305646  0.86961873  0.74512578     0.06900
C1615       C  0.36540460  0.87479877  0.76093553    -0.03100
C1616       C  0.37496469  0.86588861  0.77121376    -0.07500
C1617       C  0.38234175  0.85194055  0.76601214     0.06000
C1618       C  0.37997541  0.84670704  0.75034945    -0.02500
Br1619     Br  0.38882249  0.82714440  0.74273199    -0.02200
H1620       H  0.36862508  0.85126896  0.72806009     0.09900
H1621       H  0.37658495  0.86980842  0.78336539     0.07900
Br1622     Br  0.35503583  0.89307722  0.76973816    -0.02700
C1623       C  0.32393056  0.70359984  0.98586937    -0.09300
C1624       C  0.32232826  0.68812665  0.97982336     0.06900
C1625       C  0.31888823  0.67555930  0.99039403    -0.03100
C1626       C  0.31683817  0.67871668  0.00654819    -0.07500
C1627       C  0.31844955  0.69417715  0.01255485     0.06000
C1628       C  0.32202895  0.70671591  0.00204828    -0.02500
Br1629     Br  0.32339064  0.72845954  0.00879030    -0.02200
H1630       H  0.32636288  0.71343092  0.97792075     0.09900
H1631       H  0.31438171  0.66892802  0.01454882     0.07900
Br1632     Br  0.31811997  0.65369387  0.98395590    -0.02700
C1633       C  0.27037844  0.62861066  0.87190380    -0.09300
C1634       C  0.27422862  0.64417041  0.86731531     0.06900
C1635       C  0.26573329  0.65132638  0.85477034    -0.03100
C1636       C  0.25438896  0.64253690  0.84642365    -0.07500
C1637       C  0.25109325  0.62670342  0.85049202     0.06000
C1638       C  0.25885072  0.61989249  0.86370852    -0.02500
Br1639     Br  0.25348196  0.59926881  0.87188883    -0.02200
H1640       H  0.27645270  0.62314983  0.88185565     0.09900
H1641       H  0.24823676  0.64808718  0.83657386     0.07900
Br1642     Br  0.26813520  0.67333282  0.84922712    -0.02700
C1643       C  0.38012888  0.72824221  0.85553175    -0.09300
C1644       C  0.36976398  0.73272278  0.86777484     0.06900
C1645       C  0.36802731  0.74895136  0.87151639    -0.03100
C1646       C  0.37658986  0.76034814  0.86302792    -0.07500
C1647       C  0.38714722  0.75587094  0.85099444     0.06000
C1648       C  0.38894957  0.73966109  0.84724772    -0.02500
Br1649     Br  0.40253274  0.73257680  0.83038734    -0.02200
H1650       H  0.38143035  0.71580994  0.85247459     0.09900
H1651       H  0.37503249  0.77280378  0.86587127     0.07900
Br1652     Br  0.35343283  0.75640461  0.88734571    -0.02700
C1653       C  0.52223329  0.83021163  0.81521308    -0.09300
C1654       C  0.53092891  0.81671781  0.81973697     0.06900
C1655       C  0.52298371  0.80201852  0.82119666    -0.03100
C1656       C  0.50663432  0.80120719  0.81863277    -0.07500
C1657       C  0.49784713  0.81473608  0.81445001     0.06000
C1658       C  0.50583326  0.82939342  0.81263661    -0.02500
Br1659     Br  0.49513019  0.84898933  0.80801490    -0.02200
H1660       H  0.52815852  0.84159413  0.81409908     0.09900
H1661       H  0.50076343  0.78979687  0.81974425     0.07900
Br1662     Br  0.53366094  0.78232162  0.82548584    -0.02700
C1663       C  0.80977729  0.81725714  0.50046226    -0.09300
C1664       C  0.80880355  0.80200124  0.49382267     0.06900
C1665       C  0.80802980  0.78869524  0.50395537    -0.03100
C1666       C  0.80818181  0.79086438  0.52042921    -0.07500
C1667       C  0.80897427  0.80615131  0.52706669     0.06000
C1668       C  0.81000170  0.81943234  0.51690395    -0.02500
Br1669     Br  0.81299381  0.84068982  0.52460942    -0.02200
H1670       H  0.81062755  0.82756544  0.49278862     0.09900
H1671       H  0.80734447  0.78055873  0.52810567     0.07900
Br1672     Br  0.80553110  0.76745763  0.49605869    -0.02700
C1673       C  0.99819670  0.70286604  0.69186727    -0.09300
C1674       C  0.99124593  0.70478901  0.70688493     0.06900
C1675       C  0.00112798  0.70511775  0.72043118    -0.03100
C1676       C  0.01757011  0.70308297  0.71876963    -0.07500
C1677       C  0.02446885  0.70100563  0.70373696     0.06000
C1678       C  0.01459652  0.70091883  0.69019022    -0.02500
Br1679     Br  0.02250766  0.69682047  0.66920675    -0.02200
H1680       H  0.99076853  0.70238330  0.68136331     0.09900
H1681       H  0.02504441  0.70339743  0.72924938     0.07900
Br1682     Br  0.99304439  0.70941738  0.74129721    -0.02700
C1683       C  0.88123954  0.76122820  0.65735197    -0.09300
C1684       C  0.87751226  0.74500586  0.65611662     0.06900
C1685       C  0.86482235  0.74027090  0.64624015    -0.03100
C1686       C  0.85593514  0.75173444  0.63813944    -0.07500
C1687       C  0.85933729  0.76797144  0.63980704     0.06000
C1688       C  0.87223710  0.77269670  0.64936724    -0.02500
Br1689     Br  0.87862857  0.79450677  0.65121568    -0.02200
H1690       H  0.89105681  0.76503607  0.66476538     0.09900
H1691       H  0.84621480  0.74794929  0.63058283     0.07900
Br1692     Br  0.85963232  0.71835666  0.64261511    -0.02700
C1693       C  0.88333591  0.64509778  0.75896823    -0.09300
C1694       C  0.87716365  0.65975042  0.75393455     0.06900
C1695       C  0.86252175  0.66493875  0.76021785    -0.03100
C1696       C  0.85420058  0.65531045  0.77090985    -0.07500
C1697       C  0.86015048  0.64046926  0.77566162     0.06000
C1698       C  0.87501542  0.63546466  0.76970896    -0.02500
Br1699     Br  0.88519719  0.61624878  0.77655695    -0.02200
H1700       H  0.89469453  0.64107006  0.75446796     0.09900
H1701       H  0.84293435  0.65947500  0.77550746     0.07900
Br1702     Br  0.85375886  0.68550966  0.75572195    -0.02700
C1703       C  0.76409421  0.88227921  0.65967493    -0.09300
C1704       C  0.74774060  0.87986851  0.65759762     0.06900
C1705       C  0.74240074  0.86960590  0.64553667    -0.03100
C1706       C  0.75343887  0.86137445  0.63623899    -0.07500
C1707       C  0.76983543  0.86315220  0.63885480     0.06000
C1708       C  0.77513986  0.87403105  0.65043980    -0.02500
Br1709     Br  0.79723564  0.87877604  0.65357255    -0.02200
H1710       H  0.76829721  0.89046455  0.66867869     0.09900
H1711       H  0.74918518  0.85328314  0.62717945     0.07900
Br1712     Br  0.72022424  0.86701692  0.64090364    -0.02700
C1713       C  0.65330018  0.88668445  0.76714863    -0.09300
C1714       C  0.66660532  0.87872178  0.76095828     0.06900
C1715       C  0.67038675  0.86347912  0.76685701    -0.03100
C1716       C  0.66065700  0.85640529  0.77829060    -0.07500
C1717       C  0.64719534  0.86423838  0.78417911     0.06000
C1718       C  0.64367194  0.87964709  0.77869781    -0.02500
Br1719     Br  0.62665576  0.89214029  0.78730218    -0.02200
H1720       H  0.65031874  0.89848818  0.76298510     0.09900
H1721       H  0.66363040  0.84463743  0.78257565     0.07900
Br1722     Br  0.68918388  0.85205738  0.76090176    -0.02700
C1723       C  0.71220762  0.69487085  0.00829345    -0.09300
C1724       C  0.69726111  0.69427566  0.00096230     0.06900
C1725       C  0.68347031  0.69450742  0.01044965    -0.03100
C1726       C  0.68485217  0.69547808  0.02698089    -0.07500
C1727       C  0.69982322  0.69610123  0.03433820     0.06000
C1728       C  0.71360882  0.69591012  0.02479389    -0.02500
Br1729     Br  0.73463911  0.69829391  0.03332780    -0.02200
H1730       H  0.72288308  0.69496355  0.00110505     0.09900
H1731       H  0.67416247  0.69534858  0.03414162     0.07900
Br1732     Br  0.66253778  0.69235398  0.00162767    -0.02700
C1733       C  0.74080672  0.64485129  0.87306478    -0.09300
C1734       C  0.74593925  0.65321179  0.88655993     0.06900
C1735       C  0.76228083  0.65309963  0.89048285     0.01700
C1736       C  0.77303584  0.64476395  0.88092410    -0.07500
C1737       C  0.76780822  0.63628753  0.86758695     0.06000
C1738       C  0.75154273  0.63635200  0.86367685    -0.02500
Br1739     Br  0.74352877  0.62581213  0.84511903    -0.02200
H1740       H  0.72835198  0.64491305  0.86979653     0.09900
H1741       H  0.78556502  0.64491235  0.88390116     0.07900
Br1742     Br  0.77092462  0.66497431  0.90793165    -0.02700
C1743       C  0.63572424  0.75638460  0.87129005    -0.09300
C1744       C  0.64006331  0.77218732  0.87434198     0.06900
C1745       C  0.65237545  0.77540556  0.88521960    -0.03100
C1746       C  0.66013436  0.76285028  0.89281241    -0.07500
C1747       C  0.65604992  0.74704109  0.88947712     0.06000
C1748       C  0.64371784  0.74381999  0.87863535    -0.02500
Br1749     Br  0.63681874  0.72257865  0.87404250    -0.02200
H1750       H  0.62623539  0.75379945  0.86297436     0.09900
H1751       H  0.66951390  0.76543235  0.90125339     0.07900
Br1752     Br  0.65854145  0.79666972  0.89071743    -0.02700
C1753       C  0.80865044  0.49845963  0.82439863    -0.09300
C1754       C  0.80715210  0.49187865  0.80915972     0.06900
C1755       C  0.80699568  0.50207418  0.79586705    -0.03100
C1756       C  0.80836264  0.51851922  0.79800116    -0.07500
C1757       C  0.80979806  0.52510688  0.81325146     0.06000
C1758       C  0.81013316  0.51487895  0.82653151    -0.02500
Br1759     Br  0.81395891  0.52243401  0.84770152    -0.02200
H1760       H  0.80908327  0.49074360  0.83469781     0.09900
H1761       H  0.80797505  0.52623341  0.78770007     0.07900
Br1762     Br  0.80383816  0.49434042  0.77466318    -0.02700
C1763       C  0.99405310  0.31352848  0.71682303    -0.09300
C1764       C  0.98570243  0.29909055  0.71669369     0.06900
C1765       C  0.99427598  0.28472371  0.71733842    -0.03100
C1766       C  0.01090775  0.28504801  0.71773401    -0.07500
C1767       C  0.01925575  0.29950949  0.71768520     0.06000
C1768       C  0.01064074  0.31387472  0.71720705    -0.02500
Br1769     Br  0.02063463  0.33432845  0.71551077    -0.02200
H1770       H  0.98764729  0.32466070  0.71607582     0.09900
H1771       H  0.01736327  0.27393065  0.71825207     0.07900
Br1772     Br  0.98398477  0.26440429  0.71867995    -0.02700
C1773       C  0.87578320  0.35762882  0.76081258    -0.09300
C1774       C  0.87382748  0.35953172  0.74436203     0.06900
C1775       C  0.86303759  0.37103382  0.73869942    -0.03100
C1776       C  0.85430024  0.38016179  0.74946922    -0.07500
C1777       C  0.85595373  0.37794673  0.76590361     0.06000
C1778       C  0.86692699  0.36662874  0.77157149    -0.02500
Br1779     Br  0.87102759  0.36350613  0.79379314    -0.02200
H1780       H  0.88412824  0.34894651  0.76535123     0.09900
H1781       H  0.84600436  0.38890954  0.74496461     0.07900
Br1782     Br  0.86033761  0.37550253  0.71650572    -0.02700
C1783       C  0.71126380  0.32098445  0.99894074    -0.09300
C1784       C  0.71180632  0.30652670  0.99067248     0.06900
C1785       C  0.71290306  0.29223761  0.99933255    -0.03100
C1786       C  0.71280937  0.29257325  0.01594146    -0.07500
C1787       C  0.71187294  0.30699254  0.02426249     0.06000
C1788       C  0.71120872  0.32135002  0.01557007    -0.02500
Br1789     Br  0.70874703  0.34173070  0.02548077    -0.02200
H1790       H  0.71030732  0.33205142  0.99242857     0.09900
H1791       H  0.71364626  0.28147103  0.02240783     0.07900
Br1792     Br  0.71557927  0.27201583  0.98917165    -0.02700
C1793       C  0.75714738  0.38373576  0.86887617    -0.09300
C1794       C  0.76196575  0.37750645  0.85419514     0.06900
C1795       C  0.75606314  0.36258046  0.84933653    -0.03100
C1796       C  0.74616174  0.35391933  0.85945593    -0.07500
C1797       C  0.74184056  0.35987214  0.87440026     0.06000
C1798       C  0.74713525  0.37510117  0.87895057    -0.02500
Br1799     Br  0.74022415  0.38522162  0.89815407    -0.02200
H1800       H  0.76128518  0.39534519  0.87259876     0.09900
H1801       H  0.74188315  0.34239283  0.85563418     0.07900
Br1802     Br  0.76002449  0.35383380  0.82865168    -0.02700
C1803       C  0.79656227  0.20056810  0.51368034    -0.09300
C1804       C  0.81023281  0.20048862  0.52322279     0.06900
C1805       C  0.82529000  0.19979843  0.51589839    -0.03100
C1806       C  0.82644670  0.19966645  0.49934525    -0.07500
C1807       C  0.81281603  0.19991105  0.48975341     0.06000
C1808       C  0.79771780  0.20035611  0.49707502    -0.02500
Br1809     Br  0.77832053  0.20188806  0.48516210    -0.02200
H1810       H  0.78493672  0.20118097  0.51916718     0.09900
H1811       H  0.83810162  0.19897352  0.49393319     0.07900
Br1812     Br  0.84466892  0.19768002  0.52776986    -0.02700
C1813       C  0.85680307  0.26117746  0.63232770    -0.09300
C1814       C  0.85771921  0.24488905  0.63582422     0.06900
C1815       C  0.86820639  0.23970697  0.64783347    -0.03100
C1816       C  0.87713959  0.25080834  0.65635550    -0.07500
C1817       C  0.87582056  0.26712586  0.65322984     0.06000
C1818       C  0.86568547  0.27229131  0.64093427    -0.02500
Br1819     Br  0.86411950  0.29419645  0.63478472    -0.02200
H1820       H  0.84896258  0.26532108  0.62299547     0.09900
H1821       H  0.88502486  0.24665590  0.66564714     0.07900
Br1822     Br  0.87163788  0.21766183  0.65258748    -0.02700
C1823       C  0.51118787  0.20641885  0.79390941    -0.09300
C1824       C  0.51909172  0.20707404  0.80858204     0.06900
C1825       C  0.51003149  0.20716367  0.82268933    -0.03100
C1826       C  0.49345254  0.20653790  0.82188869    -0.07500
C1827       C  0.48553793  0.20562617  0.80724521     0.06000
C1828       C  0.49456634  0.20582834  0.79312362    -0.02500
Br1829     Br  0.48492138  0.20633833  0.77246417    -0.02200
H1830       H  0.51798187  0.20655631  0.78298344     0.09900
H1831       H  0.48672451  0.20617720  0.83284837     0.07900
Br1832     Br  0.51944354  0.20656887  0.84346760    -0.02700
C1833       C  0.62623598  0.25407349  0.87634245    -0.09300
C1834       C  0.63150602  0.24965410  0.86116399     0.06900
C1835       C  0.64581019  0.25608941  0.85528711    -0.03100
C1836       C  0.65489487  0.26612044  0.86483423    -0.07500
C1837       C  0.64997412  0.27015827  0.88023099     0.06000
C1838       C  0.63532481  0.26426339  0.88589457    -0.02500
Br1839     Br  0.62661659  0.27050518  0.90599185    -0.02200
H1840       H  0.61508232  0.24946713  0.88083923     0.09900
H1841       H  0.66595532  0.27075736  0.86015116     0.07900
Br1842     Br  0.65307138  0.25264861  0.83393612    -0.02700
C1843       C  0.71986371  0.01707796  0.71187552    -0.09300
C1844       C  0.70503488  0.02470583  0.71153630     0.06900
C1845       C  0.69106383  0.01541307  0.71084389    -0.03100
C1846       C  0.69216322  0.99884836  0.71089775    -0.07500
C1847       C  0.70698593  0.99129738  0.71118204     0.06000
C1848       C  0.72093425  0.00051691  0.71168011    -0.02500
Br1849     Br  0.74165765  0.99111725  0.71304179    -0.02200
H1850       H  0.73068928  0.02403336  0.71249088     0.09900
H1851       H  0.68138996  0.99180672  0.71025915     0.07900
Br1852     Br  0.67026735  0.02442001  0.70828169    -0.02700
C1853       C  0.77370577  0.14419203  0.65130163    -0.09300
C1854       C  0.76680742  0.15325919  0.63910540     0.06900
C1855       C  0.75008814  0.15390258  0.63791522    -0.03100
C1856       C  0.74068410  0.14567431  0.64890235    -0.07500
C1857       C  0.74761490  0.13659083  0.66103241     0.06000
C1858       C  0.76430366  0.13583758  0.66216244    -0.02500
Br1859     Br  0.77491270  0.12469211  0.67900805    -0.02200
H1860       H  0.78651789  0.14376284  0.65251630     0.09900
H1861       H  0.72786094  0.14641796  0.64800533     0.07900
Br1862     Br  0.73932144  0.16677721  0.62248615    -0.02700
C1863       C  0.64109612  0.13150185  0.75880635    -0.09300
C1864       C  0.65613727  0.13767359  0.75500248     0.06900
C1865       C  0.66121700  0.15182929  0.76237615    -0.03100
C1866       C  0.65090704  0.16002262  0.77245100    -0.07500
C1867       C  0.63556193  0.15426582  0.77570407     0.06000
C1868       C  0.63087196  0.13956350  0.76913811    -0.02500
Br1869     Br  0.61129467  0.12924122  0.77468407    -0.02200
H1870       H  0.63721923  0.12036282  0.75364912     0.09900
H1871       H  0.65494162  0.17106154  0.77768717     0.07900
Br1872     Br  0.68244837  0.15996398  0.76028438    -0.02700
loop_ 
_geom_bond_atom_site_label_1 
_geom_bond_atom_site_label_2 
_geom_bond_distance 
_geom_bond_site_symmetry_2 
_ccdc_geom_bond_type 
N1            N2   1.322       .  A
N1            C5   1.344       .  A
N1           Cu9   2.067       .  S
N2            C3   1.346       .  A
N2           Cu8   2.080       .  S
C3            C4   1.385       .  A
C3            H6   1.082       .  S
C4            C5   1.381       .  A
C4         C1857   1.476       .  S
C5            H7   1.082       .  S
Cu8          N11   2.080       .  S
Cu9          N19   2.066       .  S
Cu10         N12   2.065       .  S
Cu10         N18   2.065       .  S
N11          N12   1.322       .  A
N11          C15   1.345       .  A
N12          C13   1.344       .  A
C13          C14   1.382       .  A
C13          H16   1.082       .  S
C14          C15   1.386       .  A
C14        C1864   1.480       .  S
C15          H17   1.081       .  S
N18          N19   1.321       .  A
N18          C22   1.344       .  A
N19          C20   1.343       .  A
C20          C21   1.383       .  A
C20          H23   1.082       .  S
C21          C22   1.384       .  A
C21        C1844   1.477       .  S
C22          H24   1.081       .  S
N25          N26   1.320       .  A
N25          C29   1.347       .  A
N25         Cu33   2.072       .  S
N26          C27   1.341       .  A
N26         Cu32   2.059       .  S
C27          C28   1.381       .  A
C27          H30   1.082       .  S
C28          C29   1.385       .  A
C28        C1834   1.475       .  S
C29          H31   1.082       .  S
Cu32         N35   2.059       .  S
Cu33         N43   2.073       .  S
Cu34         N36   2.085       .  S
Cu34         N42   2.086       .  S
N35          N36   1.321       .  A
N35          C39   1.341       .  A
N36          C37   1.347       .  A
C37          C38   1.390       .  A
C37          H40   1.081       .  S
C38          C39   1.383       .  A
C38        C1867   1.483       .  S
C39          H41   1.082       .  S
N42          N43   1.324       .  A
N42          C46   1.347       .  A
N43          C44   1.343       .  A
C44          C45   1.382       .  A
C44          H47   1.082       .  S
C45          C46   1.385       .  A
C45        C1824   1.480       .  S
C46          H48   1.082       .  S
N49          N50   1.320       .  A
N49          C53   1.345       .  A
N49         Cu57   2.068       .  S
N50          C51   1.343       .  A
N50         Cu56   2.063       .  S
C51          C52   1.384       .  A
C51          H54   1.082       .  S
C52          C53   1.385       .  A
C52        C1814   1.477       .  S
C53          H55   1.082       .  S
Cu56         N59   2.063       .  S
Cu57         N67   2.068       .  S
Cu58         N60   2.086       .  S
Cu58         N66   2.086       .  S
N59          N60   1.322       .  A
N59          C63   1.342       .  A
N60          C61   1.348       .  A
C61          C62   1.388       .  A
C61          H64   1.082       .  S
C62          C63   1.381       .  A
C62        C1854   1.479       .  S
C63          H65   1.082       .  S
N66          N67   1.323       .  A
N66          C70   1.348       .  A
N67          C68   1.342       .  A
C68          C69   1.381       .  A
C68          H71   1.082       .  S
C69          C70   1.386       .  A
C69        C1804   1.478       .  S
C70          H72   1.082       .  S
N73          N74   1.321       .  A
N73          C77   1.348       .  A
N73         Cu81   2.080       .  S
N74          C75   1.340       .  A
N74         Cu80   2.055       .  S
C75          C76   1.382       .  A
C75          H78   1.082       .  S
C76          C77   1.388       .  A
C76        C1837   1.479       .  S
C77          H79   1.081       .  S
Cu80         N83   2.056       .  S
Cu81         N91   2.081       .  S
Cu82         N84   2.074       .  S
Cu82         N90   2.076       .  S
N83          N84   1.320       .  A
N83          C87   1.342       .  A
N84          C85   1.345       .  A
C85          C86   1.386       .  A
C85          H88   1.082       .  S
C86          C87   1.382       .  A
C86        C1797   1.476       .  S
C87          H89   1.082       .  S
N90          N91   1.324       .  A
N90          C94   1.346       .  A
N91          C92   1.345       .  A
C92          C93   1.384       .  A
C92          H95   1.082       .  S
C93          C94   1.383       .  A
C93        C1784   1.479       .  S
C94          H96   1.082       .  S
N97          N98   1.322       .  A
N97         C101   1.344       .  A
N97        Cu105   2.073       .  S
N98          C99   1.345       .  A
N98        Cu104   2.071       .  S
C99         C100   1.384       .  A
C99         H102   1.082       .  S
C100        C101   1.384       .  A
C100       C1817   1.476       .  S
C101        H103   1.082       .  S
Cu104       N107   2.071       .  S
Cu105       N115   2.073       .  S
Cu106       N108   2.068       .  S
Cu106       N114   2.068       .  S
N107        N108   1.321       .  A
N107        C111   1.345       .  A
N108        C109   1.344       .  A
C109        C110   1.384       .  A
C109        H112   1.082       .  S
C110        C111   1.385       .  A
C110       C1774   1.478       .  S
C111        H113   1.082       .  S
N114        N115   1.321       .  A
N114        C118   1.343       .  A
N115        C116   1.346       .  A
C116        C117   1.386       .  A
C116        H119   1.082       .  S
C117        C118   1.384       .  A
C117       C1764   1.478       .  S
C118        H120   1.082       .  S
N121        N122   1.321       .  A
N121        C125   1.345       .  A
N121       Cu129   2.071       .  S
N122        C123   1.342       .  A
N122       Cu128   2.061       .  S
C123        C124   1.383       .  A
C123        H126   1.082       .  S
C124        C125   1.385       .  A
C124       C1794   1.476       .  S
C125        H127   1.082       .  S
Cu128       N131   2.061       .  S
Cu129       N139   2.072       .  S
Cu130       N132   2.081       .  S
Cu130       N138   2.081       .  S
N131        N132   1.322       .  A
N131        C135   1.343       .  A
N132        C133   1.346       .  A
C133        C134   1.386       .  A
C133        H136   1.082       .  S
C134        C135   1.382       .  A
C134       C1777   1.476       .  S
C135        H137   1.082       .  S
N138        N139   1.323       .  A
N138        C142   1.346       .  A
N139        C140   1.344       .  A
C140        C141   1.383       .  A
C140        H143   1.082       .  S
C141        C142   1.385       .  A
C141       C1754   1.479       .  S
C142        H144   1.082       .  S
N145        N146   1.322       .  A
N145        C149   1.345       .  A
N145       Cu153   2.074       .  S
N146        C147   1.345       .  A
N146       Cu152   2.077       .  S
C147        C148   1.385       .  A
C147        H150   1.082       .  S
C148        C149   1.385       .  A
C148       C1734   1.482       .  S
C149        H151   1.081       .  S
Cu152       N155   2.076       .  S
Cu153       N163   2.074       .  S
Cu154       N156   2.062       .  S
Cu154       N162   2.062       .  S
N155        N156   1.322       .  A
N155        C159   1.345       .  A
N156        C157   1.343       .  A
C157        C158   1.380       .  A
C157        H160   1.082       .  S
C158        C159   1.383       .  A
C158       C1747   1.471       .  S
C159        H161   1.082       .  S
N162        N163   1.321       .  A
N162        C166   1.344       .  A
N163        C164   1.344       .  A
C164        C165   1.384       .  A
C164        H167   1.082       .  S
C165        C166   1.382       .  A
C165       C1724   1.475   1_556  S
C166        H168   1.082       .  S
N169        N170   1.323       .  A
N169        C173   1.343       .  A
N169       Cu177   2.067       .  S
N170        C171   1.346       .  A
N170       Cu176   2.081       .  S
C171        C172   1.384       .  A
C171        H174   1.082       .  S
C172        C173   1.380       .  A
C172       C1704   1.472       .  S
C173        H175   1.082       .  S
Cu176       N179   2.080       .  S
Cu177       N187   2.067       .  S
Cu178       N180   2.058       .  S
Cu178       N186   2.058       .  S
N179        N180   1.321       .  A
N179        C183   1.345       .  A
N180        C181   1.341       .  A
C181        C182   1.382       .  A
C181        H184   1.082       .  S
C182        C183   1.388       .  A
C182       C1714   1.480       .  S
C183        H185   1.081       .  S
N186        N187   1.321       .  A
N186        C190   1.343       .  A
N187        C188   1.344       .  A
C188        C189   1.383       .  A
C188        H191   1.082       .  S
C189        C190   1.380       .  A
C189       C1847   1.470       .  S
C190        H192   1.082       .  S
N193        N194   1.322       .  A
N193        C197   1.346       .  A
N193       Cu201   2.079       .  S
N194        C195   1.344       .  A
N194       Cu200   2.072       .  S
C195        C196   1.384       .  A
C195        H198   1.082       .  S
C196        C197   1.386       .  A
C196       C1694   1.482       .  S
C197        H199   1.082       .  S
Cu200       N203   2.071       .  S
Cu201       N211   2.079       .  S
Cu202       N204   2.075       .  S
Cu202       N210   2.075       .  S
N203        N204   1.321       .  A
N203        C207   1.344       .  A
N204        C205   1.345       .  A
C205        C206   1.385       .  A
C205        H208   1.082       .  S
C206        C207   1.384       .  A
C206       C1684   1.478       .  S
C207        H209   1.082       .  S
N210        N211   1.322       .  A
N210        C214   1.344       .  A
N211        C212   1.346       .  A
C212        C213   1.386       .  A
C212        H215   1.082       .  S
C213        C214   1.385       .  A
C213       C1674   1.481       .  S
C214        H216   1.082       .  S
N217        N218   1.323       .  A
N217        C221   1.345       .  A
N217       Cu225   2.075       .  S
N218        C219   1.347       .  A
N218       Cu224   2.079       .  S
C219        C220   1.383       .  A
C219        H222   1.082       .  S
C220        C221   1.382       .  A
C220       C1737   1.475       .  S
C221        H223   1.082       .  S
Cu224       N227   2.080       .  S
Cu225       N235   2.075       .  S
Cu226       N228   2.077       .  S
Cu226       N234   2.077       .  S
N227        N228   1.322       .  A
N227        C231   1.345       .  A
N228        C229   1.346       .  A
C229        C230   1.386       .  A
C229        H232   1.081       .  S
C230        C231   1.386       .  A
C230       C1697   1.484       .  S
C231        H233   1.082       .  S
N234        N235   1.322       .  A
N234        C238   1.346       .  A
N235        C236   1.345       .  A
C236        C237   1.385       .  A
C236        H239   1.082       .  S
C237        C238   1.385       .  A
C237       C1757   1.480       .  S
C238        H240   1.082       .  S
N241        N242   1.323       .  A
N241        C245   1.346       .  A
N241       Cu249   2.076       .  S
N242        C243   1.344       .  A
N242       Cu248   2.080       .  S
C243        C244   1.384       .  A
C243        H246   1.082       .  S
C244        C245   1.383       .  A
C244       C1707   1.477       .  S
C245        H247   1.082       .  S
Cu248       N251   2.080       .  S
Cu249       N259   2.075       .  S
Cu250       N252   2.059       .  S
Cu250       N258   2.059       .  S
N251        N252   1.321       .  A
N251        C255   1.347       .  A
N252        C253   1.342       .  A
C253        C254   1.380       .  A
C253        H256   1.082       .  S
C254        C255   1.386       .  A
C254       C1687   1.475       .  S
C255        H257   1.082       .  S
N258        N259   1.321       .  A
N258        C262   1.342       .  A
N259        C260   1.345       .  A
C260        C261   1.386       .  A
C260        H263   1.082       .  S
C261        C262   1.381       .  A
C261       C1667   1.476       .  S
C262        H264   1.082       .  S
N265        N266   1.321       .  A
N265        C269   1.344       .  A
N265       Cu273   2.067       .  S
N266        C267   1.342       .  A
N266       Cu272   2.061       .  S
C267        C268   1.381       .  A
C267        H270   1.082       .  S
C268        C269   1.383       .  A
C268       C1744   1.471       .  S
C269        H271   1.082       .  S
Cu272       N275   2.061       .  S
Cu273       N283   2.067       .  S
Cu274       N276   2.064       .  S
Cu274       N282   2.064       .  S
N275        N276   1.321       .  A
N275        C279   1.342       .  A
N276        C277   1.344       .  A
C277        C278   1.384       .  A
C277        H280   1.082       .  S
C278        C279   1.382       .  A
C278       C1717   1.474       .  S
C279        H281   1.082       .  S
N282        N283   1.322       .  A
N282        C286   1.343       .  A
N283        C284   1.342       .  A
C284        C285   1.384       .  A
C284        H287   1.081       .  S
C285        C286   1.383       .  A
C285       C1654   1.477       .  S
C286        H288   1.082       .  S
N289        N290   1.322       .  A
N289        C293   1.343       .  A
N289       Cu297   2.065       .  S
N290        C291   1.345       .  A
N290       Cu296   2.071       .  S
C291        C292   1.383       .  A
C291        H294   1.082       .  S
C292        C293   1.381       .  A
C292       C1644   1.472       .  S
C293        H295   1.082       .  S
Cu296       N299   2.071       .  S
Cu297       N307   2.065       .  S
Cu298       N300   2.065       .  S
Cu298       N306   2.065       .  S
N299        N300   1.322       .  A
N299        C303   1.343       .  A
N300        C301   1.344       .  A
C301        C302   1.382       .  A
C301        H304   1.082       .  S
C302        C303   1.383       .  A
C302       C1634   1.475       .  S
C303        H305   1.082       .  S
N306        N307   1.320       .  A
N306        C310   1.343       .  A
N307        C308   1.342       .  A
C308        C309   1.384       .  A
C308        H311   1.082       .  S
C309        C310   1.385       .  A
C309       C1624   1.479       .  S
C310        H312   1.081       .  S
N313        N314   1.322       .  A
N313        C317   1.345       .  A
N313       Cu321   2.069       .  S
N314        C315   1.343       .  A
N314       Cu320   2.073       .  S
C315        C316   1.384       .  A
C315        H318   1.082       .  S
C316        C317   1.385       .  A
C316       C1614   1.479       .  S
C317        H319   1.081       .  S
Cu320       N323   2.073       .  S
Cu321       N331   2.070       .  S
Cu322       N324   2.073       .  S
Cu322       N330   2.073       .  S
N323        N324   1.321       .  A
N323        C327   1.345       .  A
N324        C325   1.345       .  A
C325        C326   1.385       .  A
C325        H328   1.081       .  S
C326        C327   1.386       .  A
C326       C1604   1.481       .  S
C327        H329   1.082       .  S
N330        N331   1.321       .  A
N330        C334   1.344       .  A
N331        C332   1.344       .  A
C332        C333   1.385       .  A
C332        H335   1.082       .  S
C333        C334   1.386       .  A
C333       C1594   1.482       .  S
C334        H336   1.081       .  S
N337        N338   1.321       .  A
N337        C341   1.344       .  A
N337       Cu345   2.061       .  S
N338        C339   1.343       .  A
N338       Cu344   2.068       .  S
C339        C340   1.382       .  A
C339        H342   1.082       .  S
C340        C341   1.382       .  A
C340       C1647   1.470       .  S
C341        H343   1.082       .  S
Cu344       N347   2.068       .  S
Cu345       N355   2.061       .  S
Cu346       N348   2.067       .  S
Cu346       N354   2.067       .  S
N347        N348   1.323       .  A
N347        C351   1.344       .  A
N348        C349   1.344       .  A
C349        C350   1.380       .  A
C349        H352   1.082       .  S
C350        C351   1.380       .  A
C350       C1617   1.467       .  S
C351        H353   1.082       .  S
N354        N355   1.321       .  A
N354        C358   1.345       .  A
N355        C356   1.340       .  A
C356        C357   1.383       .  A
C356        H359   1.082       .  S
C357        C358   1.386       .  A
C357       C1657   1.478       .  S
C358        H360   1.081       .  S
N361        N362   1.323       .  A
N361        C365   1.346       .  A
N361       Cu369   2.076       .  S
N362        C363   1.345       .  A
N362       Cu368   2.078       .  S
C363        C364   1.383       .  A
C363        H366   1.082       .  S
C364        C365   1.383       .  A
C364       C1587   1.475       .  S
C365        H367   1.082       .  S
Cu368       N371   2.077       .  S
Cu369       N379   2.076       .  S
Cu370       N372   2.072       .  S
Cu370       N378   2.073       .  S
N371        N372   1.322       .  A
N371        C375   1.346       .  A
N372        C373   1.345       .  A
C373        C374   1.384       .  A
C373        H376   1.082       .  S
C374        C375   1.385       .  A
C374       C1574   1.479       .  S
C375        H377   1.082       .  S
N378        N379   1.322       .  A
N378        C382   1.344       .  A
N379        C380   1.346       .  A
C380        C381   1.385       .  A
C380        H383   1.082       .  S
C381        C382   1.383       .  A
C381       C1677   1.479       .  S
C382        H384   1.082       .  S
N385        N386   1.320       .  A
N385        C389   1.342       .  A
N385       Cu393   2.059       .  S
N386        C387   1.344       .  A
N386       Cu392   2.069       .  S
C387        C388   1.385       .  A
C387        H390   1.082       .  S
C388        C389   1.383       .  A
C388       C1637   1.476       .  S
C389        H391   1.082       .  S
Cu392       N395   2.070       .  S
Cu393       N403   2.059       .  S
Cu394       N396   2.077       .  S
Cu394       N402   2.076       .  S
N395        N396   1.322       .  A
N395        C399   1.344       .  A
N396        C397   1.344       .  A
C397        C398   1.386       .  A
C397        H400   1.082       .  S
C398        C399   1.385       .  A
C398       C1584   1.481       .  S
C399        H401   1.081       .  S
N402        N403   1.321       .  A
N402        C406   1.346       .  A
N403        C404   1.341       .  A
C404        C405   1.381       .  A
C404        H407   1.082       .  S
C405        C406   1.386       .  A
C405       C1564   1.475       .  S
C406        H408   1.082       .  S
N409        N410   1.323       .  A
N409        C413   1.345       .  A
N409       Cu417   2.072       .  S
N410        C411   1.346       .  A
N410       Cu416   2.079       .  S
C411        C412   1.383       .  A
C411        H414   1.082       .  S
C412        C413   1.382       .  A
C412       C1607   1.475       .  S
C413        H415   1.082       .  S
Cu416       N419   2.079       .  S
Cu417       N427   2.071       .  S
Cu418       N420   2.070       .  S
Cu418       N426   2.070       .  S
N419        N420   1.321       .  A
N419        C423   1.345       .  A
N420        C421   1.345       .  A
C421        C422   1.385       .  A
C421        H424   1.081       .  S
C422        C423   1.386       .  A
C422       C1577   1.483       .  S
C423        H425   1.082       .  S
N426        N427   1.322       .  A
N426        C430   1.342       .  A
N427        C428   1.346       .  A
C428        C429   1.383       .  A
C428        H431   1.082       .  S
C429        C430   1.382       .  A
C429       C1554   1.474       .  S
C430        H432   1.082       .  S
N433        N434   1.322       .  A
N433        C437   1.347       .  A
N433       Cu441   2.074       .  S
N434        C435   1.341       .  A
N434       Cu440   2.067       .  S
C435        C436   1.382       .  A
C435        H438   1.082       .  S
C436        C437   1.386       .  A
C436       C1537   1.479       .  S
C437        H439   1.081       .  S
Cu440       N443   2.067       .  S
Cu441       N451   2.074       .  S
Cu442       N444   2.074       .  S
Cu442       N450   2.075       .  S
N443        N444   1.321       .  A
N443        C447   1.344       .  A
N444        C445   1.345       .  A
C445        C446   1.384       .  A
C445        H448   1.082       .  S
C446        C447   1.383       .  A
C446       C1547   1.475       .  S
C447        H449   1.082       .  S
N450        N451   1.323       .  A
N450        C454   1.344       .  A
N451        C452   1.345       .  A
C452        C453   1.383       .  A
C452        H455   1.082       .  S
C453        C454   1.384       .  A
C453       C1767   1.478       .  S
C454        H456   1.082       .  S
N457        N458   1.322       .  A
N457        C461   1.348       .  A
N457       Cu465   2.077       .  S
N458        C459   1.342       .  A
N458       Cu464   2.069       .  S
C459        C460   1.382       .  A
C459        H462   1.082       .  S
C460        C461   1.385       .  A
C460       C1524   1.477       .  S
C461        H463   1.082       .  S
Cu464       N467   2.069       .  S
Cu465       N475   2.077       .  S
Cu466       N468   2.070       .  S
Cu466       N474   2.070       .  S
N467        N468   1.320       .  A
N467        C471   1.344       .  A
N468        C469   1.345       .  A
C469        C470   1.385       .  A
C469        H472   1.082       .  S
C470        C471   1.385       .  A
C470       C1544   1.479       .  S
C471        H473   1.082       .  S
N474        N475   1.323       .  A
N474        C478   1.343       .  A
N475        C476   1.345       .  A
C476        C477   1.385       .  A
C476        H479   1.081       .  S
C477        C478   1.382       .  A
C477       C1567   1.477       .  S
C478        H480   1.082       .  S
N481        N482   1.322       .  A
N481        C485   1.344       .  A
N481       Cu489   2.069       .  S
N482        C483   1.345       .  A
N482       Cu488   2.074       .  S
C483        C484   1.383       .  A
C483        H486   1.082       .  S
C484        C485   1.382       .  A
C484       C1517   1.474       .  S
C485        H487   1.082       .  S
Cu488       N491   2.074       .  S
Cu489       N499   2.069       .  S
Cu490       N492   2.083       .  S
Cu490       N498   2.083       .  S
N491        N492   1.322       .  A
N491        C495   1.343       .  A
N492        C493   1.348       .  A
C493        C494   1.387       .  A
C493        H496   1.082       .  S
C494        C495   1.384       .  A
C494       C1504   1.484       .  S
C495        H497   1.081       .  S
N498        N499   1.322       .  A
N498        C502   1.345       .  A
N499        C500   1.345       .  A
C500        C501   1.386       .  A
C500        H503   1.081       .  S
C501        C502   1.388       .  A
C501       C1597   1.484       .  S
C502        H504   1.082       .  S
N505        N506   1.321       .  A
N505        C509   1.346       .  A
N505       Cu513   2.078       .  S
N506        C507   1.344       .  A
N506       Cu512   2.064       .  S
C507        C508   1.382       .  A
C507        H510   1.082       .  S
C508        C509   1.385       .  A
C508       C1494   1.476       .  S
C509        H511   1.082       .  S
Cu512       N515   2.064       .  S
Cu513       N523   2.079       .  S
Cu514       N516   2.075       .  S
Cu514       N522   2.076       .  S
N515        N516   1.321       .  A
N515        C519   1.342       .  A
N516        C517   1.346       .  A
C517        C518   1.387       .  A
C517        H520   1.081       .  S
C518        C519   1.383       .  A
C518       C1514   1.482       .  S
C519        H521   1.082       .  S
N522        N523   1.323       .  A
N522        C526   1.345       .  A
N523        C524   1.345       .  A
C524        C525   1.386       .  A
C524        H527   1.082       .  S
C525        C526   1.385       .  A
C525       C1827   1.481       .  S
C526        H528   1.082       .  S
N529        N530   1.322       .  A
N529        C533   1.346       .  A
N529       Cu537   2.072       .  S
N530        C531   1.344       .  A
N530       Cu536   2.072       .  S
C531        C532   1.382       .  A
C531        H534   1.082       .  S
C532        C533   1.383       .  A
C532       C1527   1.474       .  S
C533        H535   1.082       .  S
Cu536       N539   2.072       .  S
Cu537       N547   2.072       .  S
Cu538       N540   2.071       .  S
Cu538       N546   2.071       .  S
N539        N540   1.321       .  A
N539        C543   1.344       .  A
N540        C541   1.345       .  A
C541        C542   1.385       .  A
C541        H544   1.082       .  S
C542        C543   1.385       .  A
C542       C1497   1.481       .  S
C543        H545   1.081       .  S
N546        N547   1.322       .  A
N546        C550   1.344       .  A
N547        C548   1.344       .  A
C548        C549   1.385       .  A
C548        H551   1.081       .  S
C549        C550   1.384       .  A
C549       C1484   1.480       .  S
C550        H552   1.082       .  S
N553        N554   1.323       .  A
N553        C557   1.345       .  A
N553       Cu561   2.076       .  S
N554        C555   1.346       .  A
N554       Cu560   2.082       .  S
C555        C556   1.385       .  A
C555        H558   1.082       .  S
C556        C557   1.384       .  A
C556       C1507   1.479       .  S
C557        H559   1.082       .  S
Cu560       N563   2.082       .  S
Cu561       N571   2.076       .  S
Cu562       N564   2.062       .  S
Cu562       N570   2.062       .  S
N563        N564   1.322       .  A
N563        C567   1.346       .  A
N564        C565   1.343       .  A
C565        C566   1.382       .  A
C565        H568   1.082       .  S
C566        C567   1.386       .  A
C566       C1534   1.479       .  S
C567        H569   1.082       .  S
N570        N571   1.321       .  A
N570        C574   1.344       .  A
N571        C572   1.344       .  A
C572        C573   1.385       .  A
C572        H575   1.082       .  S
C573        C574   1.383       .  A
C573       C1474   1.477       .  S
C574        H576   1.082       .  S
N577        N578   1.323       .  A
N577        C581   1.345       .  A
N577       Cu585   2.075       .  S
N578        C579   1.347       .  A
N578       Cu584   2.083       .  S
C579        C580   1.385       .  A
C579        H582   1.082       .  S
C580        C581   1.383       .  A
C580       C1457   1.479       .  S
C581        H583   1.082       .  S
Cu584       N587   2.083       .  S
Cu585       N595   2.075       .  S
Cu586       N588   2.069       .  S
Cu586       N594   2.068       .  S
N587        N588   1.321       .  A
N587        C591   1.345       .  A
N588        C589   1.345       .  A
C589        C590   1.385       .  A
C589        H592   1.082       .  S
C590        C591   1.388       .  A
C590       C1464   1.486       .  S
C591        H593   1.081       .  S
N594        N595   1.322       .  A
N594        C598   1.344       .  A
N595        C596   1.345       .  A
C596        C597   1.384       .  A
C596        H599   1.082       .  S
C597        C598   1.383       .  A
C597       C1444   1.477       .  S
C598        H600   1.082       .  S
N601        N602   1.321       .  A
N601        C605   1.342       .  A
N601       Cu609   2.054       .  S
N602        C603   1.346       .  A
N602       Cu608   2.079       .  S
C603        C604   1.386       .  A
C603        H606   1.082       .  S
C604        C605   1.380       .  A
C604       C1437   1.473       .  S
C605        H607   1.082       .  S
Cu608       N611   2.079       .  S
Cu609       N619   2.054       .  S
Cu610       N612   2.079       .  S
Cu610       N618   2.079       .  S
N611        N612   1.322       .  A
N611        C615   1.344       .  A
N612        C613   1.346       .  A
C613        C614   1.387       .  A
C613        H616   1.081       .  S
C614        C615   1.387       .  A
C614       C1467   1.486       .  S
C615        H617   1.082       .  S
N618        N619   1.321       .  A
N618        C622   1.345       .  A
N619        C620   1.342       .  A
C620        C621   1.381       .  A
C620        H623   1.082       .  S
C621        C622   1.386       .  A
C621       C1557   1.476       .  S
C622        H624   1.082       .  S
N625        N626   1.322       .  A
N625        C629   1.346       .  A
N625       Cu633   2.073       .  S
N626        C627   1.344       .  A
N626       Cu632   2.071       .  S
C627        C628   1.382       .  A
C627        H630   1.082       .  S
C628        C629   1.384       .  A
C628       C1424   1.475       .  S
C629        H631   1.082       .  S
Cu632       N635   2.071       .  S
Cu633       N643   2.074       .  S
Cu634       N636   2.085       .  S
Cu634       N642   2.085       .  S
N635        N636   1.323       .  A
N635        C639   1.345       .  A
N636        C637   1.347       .  A
C637        C638   1.385       .  A
C637        H640   1.082       .  S
C638        C639   1.382       .  A
C638       C1454   1.477       .  S
C639        H641   1.082       .  S
N642        N643   1.323       .  A
N642        C646   1.347       .  A
N643        C644   1.344       .  A
C644        C645   1.384       .  A
C644        H647   1.082       .  S
C645        C646   1.387       .  A
C645       C1414   1.482       .  S
C646        H648   1.082       .  S
N649        N650   1.323       .  A
N649        C653   1.343       .  A
N649       Cu657   2.062       .  S
N650        C651   1.346       .  A
N650       Cu656   2.081       .  S
C651        C652   1.383       .  A
C651        H654   1.082       .  S
C652        C653   1.379       .  A
C652       C1407   1.470       .  S
C653        H655   1.082       .  S
Cu656       N659   2.081       .  S
Cu657       N667   2.061       .  S
Cu658       N660   2.063       .  S
Cu658       N666   2.063       .  S
N659        N660   1.322       .  A
N659        C663   1.346       .  A
N660        C661   1.343       .  A
C661        C662   1.381       .  A
C661        H664   1.082       .  S
C662        C663   1.386       .  A
C662       C1427   1.476       .  S
C663        H665   1.082       .  S
N666        N667   1.320       .  A
N666        C670   1.342       .  A
N667        C668   1.344       .  A
C668        C669   1.384       .  A
C668        H671   1.082       .  S
C669        C670   1.383       .  A
C669       C1627   1.475       .  S
C670        H672   1.082       .  S
N673        N674   1.323       .  A
N673        C677   1.343       .  A
N673       Cu681   2.065       .  S
N674        C675   1.346       .  A
N674       Cu680   2.081       .  S
C675        C676   1.384       .  A
C675        H678   1.082       .  S
C676        C677   1.380       .  A
C676       C1394   1.474       .  S
C677        H679   1.082       .  S
Cu680       N683   2.081       .  S
Cu681       N691   2.064       .  S
Cu682       N684   2.054       .  S
Cu682       N690   2.053       .  S
N683        N684   1.322       .  A
N683        C687   1.346       .  A
N684        C685   1.342       .  A
C685        C686   1.379       .  A
C685        H688   1.082       .  S
C686        C687   1.385       .  A
C686       C1404   1.473       .  S
C687        H689   1.082       .  S
N690        N691   1.319       .  A
N690        C694   1.341       .  A
N691        C692   1.343       .  A
C692        C693   1.386       .  A
C692        H695   1.081       .  S
C693        C694   1.383       .  A
C693       C1384   1.476       .  S
C694        H696   1.082       .  S
N697        N698   1.321       .  A
N697        C701   1.344       .  A
N697       Cu705   2.069       .  S
N698        C699   1.343       .  A
N698       Cu704   2.066       .  S
C699        C700   1.382       .  A
C699        H702   1.082       .  S
C700        C701   1.384       .  A
C700       C1434   1.474       .  S
C701        H703   1.082       .  S
Cu704       N707   2.066       .  S
Cu705       N715   2.069       .  S
Cu706       N708   2.080       .  S
Cu706       N714   2.080       .  S
N707        N708   1.322       .  A
N707        C711   1.343       .  A
N708        C709   1.346       .  A
C709        C710   1.386       .  A
C709        H712   1.082       .  S
C710        C711   1.382       .  A
C710       C1397   1.478       .  S
C711        H713   1.082       .  S
N714        N715   1.323       .  A
N714        C718   1.346       .  A
N715        C716   1.344       .  A
C716        C717   1.381       .  A
C716        H719   1.082       .  S
C717        C718   1.384       .  A
C717       C1374   1.474       .  S
C718        H720   1.082       .  S
N721        N722   1.321       .  A
N721        C725   1.343       .  A
N721       Cu729   2.061       .  S
N722        C723   1.345       .  A
N722       Cu728   2.074       .  S
C723        C724   1.385       .  A
C723        H726   1.082       .  S
C724        C725   1.381       .  A
C724       C1364   1.474       .  S
C725        H727   1.082       .  S
Cu728       N731   2.074       .  S
Cu729       N739   2.061       .  S
Cu730       N732   2.080       .  S
Cu730       N738   2.079       .  S
N731        N732   1.324       .  A
N731        C735   1.346       .  A
N732        C733   1.345       .  A
C733        C734   1.383       .  A
C733        H736   1.082       .  S
C734        C735   1.381       .  A
C734       C1354   1.474       .  S
C735        H737   1.082       .  S
N738        N739   1.321       .  A
N738        C742   1.346       .  A
N739        C740   1.342       .  A
C740        C741   1.382       .  A
C740        H743   1.082       .  S
C741        C742   1.387       .  A
C741       C1727   1.479       .  S
C742        H744   1.082       .  S
N745        N746   1.323       .  A
N745        C749   1.344       .  A
N745       Cu753   2.067       .  S
N746        C747   1.345       .  A
N746       Cu752   2.078       .  S
C747        C748   1.384       .  A
C747        H750   1.082       .  S
C748        C749   1.381       .  A
C748       C1334   1.473       .  S
C749        H751   1.082       .  S
Cu752       N755   2.078       .  S
Cu753       N763   2.067       .  S
Cu754       N756   2.060       .  S
Cu754       N762   2.060       .  S
N755        N756   1.322       .  A
N755        C759   1.346       .  A
N756        C757   1.342       .  A
C757        C758   1.380       .  A
C757        H760   1.082       .  S
C758        C759   1.384       .  A
C758       C1347   1.473       .  S
C759        H761   1.082       .  S
N762        N763   1.321       .  A
N762        C766   1.343       .  A
N763        C764   1.343       .  A
C764        C765   1.384       .  A
C764        H767   1.082       .  S
C765        C766   1.382       .  A
C765       C1324   1.474       .  S
C766        H768   1.082       .  S
N769        N770   1.320       .  A
N769        C773   1.344       .  A
N769       Cu777   2.062       .  S
N770        C771   1.343       .  A
N770       Cu776   2.065       .  S
C771        C772   1.384       .  A
C771        H774   1.082       .  S
C772        C773   1.384       .  A
C772       C1344   1.475       .  S
C773        H775   1.082       .  S
Cu776       N779   2.066       .  S
Cu777       N787   2.062       .  S
Cu778       N780   2.079       .  S
Cu778       N786   2.079       .  S
N779        N780   1.322       .  A
N779        C783   1.343       .  A
N780        C781   1.345       .  A
C781        C782   1.386       .  A
C781        H784   1.082       .  S
C782        C783   1.384       .  A
C782       C1317   1.481       .  S
C783        H785   1.081       .  S
N786        N787   1.322       .  A
N786        C790   1.347       .  A
N787        C788   1.341       .  A
C788        C789   1.380       .  A
C788        H791   1.082       .  S
C789        C790   1.386       .  A
C789       C1664   1.475       .  S
C790        H792   1.082       .  S
N793        N794   1.319       .  A
N793        C797   1.342       .  A
N793       Cu801   2.060       .  S
N794        C795   1.343       .  A
N794       Cu800   2.060       .  S
C795        C796   1.384       .  A
C795        H798   1.082       .  S
C796        C797   1.384       .  A
C796       C1304   1.475       .  S
C797        H799   1.081       .  S
Cu800       N803   2.061       .  S
Cu801       N811   2.061       .  S
Cu802       N804   2.082       .  S
Cu802       N810   2.082       .  S
N803        N804   1.322       .  A
N803        C807   1.341       .  A
N804        C805   1.347       .  A
C805        C806   1.388       .  A
C805        H808   1.081       .  S
C806        C807   1.381       .  A
C806       C1314   1.480       .  S
C807        H809   1.082       .  S
N810        N811   1.322       .  A
N810        C814   1.346       .  A
N811        C812   1.342       .  A
C812        C813   1.381       .  A
C812        H815   1.081       .  S
C813        C814   1.387       .  A
C813       C1447   1.478       .  S
C814        H816   1.082       .  S
N817        N818   1.322       .  A
N817        C821   1.344       .  A
N817       Cu825   2.060       .  S
N818        C819   1.345       .  A
N818       Cu824   2.081       .  S
C819        C820   1.384       .  A
C819        H822   1.082       .  S
C820        C821   1.380       .  A
C820       C1337   1.472       .  S
C821        H823   1.082       .  S
Cu824       N827   2.081       .  S
Cu825       N835   2.059       .  S
Cu826       N828   2.068       .  S
Cu826       N834   2.068       .  S
N827        N828   1.322       .  A
N827        C831   1.346       .  A
N828        C829   1.344       .  A
C829        C830   1.384       .  A
C829        H832   1.082       .  S
C830        C831   1.387       .  A
C830       C1357   1.481       .  S
C831        H833   1.082       .  S
N834        N835   1.321       .  A
N834        C838   1.344       .  A
N835        C836   1.342       .  A
C836        C837   1.380       .  A
C836        H839   1.082       .  S
C837        C838   1.383       .  A
C837       C1387   1.470       .  S
C838        H840   1.082       .  S
N841        N842   1.321       .  A
N841        C845   1.344       .  A
N841       Cu849   2.073       .  S
N842        C843   1.342       .  A
N842       Cu848   2.059       .  S
C843        C844   1.382       .  A
C843        H846   1.081       .  S
C844        C845   1.386       .  A
C844       C1307   1.478       .  S
C845        H847   1.082       .  S
Cu848       N851   2.059       .  S
Cu849       N859   2.074       .  S
Cu850       N852   2.068       .  S
Cu850       N858   2.068       .  S
N851        N852   1.320       .  A
N851        C855   1.342       .  A
N852        C853   1.344       .  A
C853        C854   1.384       .  A
C853        H856   1.082       .  S
C854        C855   1.382       .  A
C854       C1367   1.474       .  S
C855        H857   1.082       .  S
N858        N859   1.322       .  A
N858        C862   1.343       .  A
N859        C860   1.345       .  A
C860        C861   1.384       .  A
C860        H863   1.082       .  S
C861        C862   1.382       .  A
C861       C1294   1.476       .  S
C862        H864   1.082       .  S
N865        N866   1.321       .  A
N865        C869   1.346       .  A
N865       Cu873   2.074       .  S
N866        C867   1.342       .  A
N866       Cu872   2.069       .  S
C867        C868   1.386       .  A
C867        H870   1.082       .  S
C868        C869   1.388       .  A
C868       C1274   1.486       .  S
C869        H871   1.080       .  S
Cu872       N875   2.069       .  S
Cu873       N883   2.075       .  S
Cu874       N876   2.069       .  S
Cu874       N882   2.069       .  S
N875        N876   1.321       .  A
N875        C879   1.344       .  A
N876        C877   1.345       .  A
C877        C878   1.385       .  A
C877        H880   1.082       .  S
C878        C879   1.384       .  A
C878       C1284   1.477       .  S
C879        H881   1.082       .  S
N882        N883   1.322       .  A
N882        C886   1.343       .  A
N883        C884   1.346       .  A
C884        C885   1.385       .  A
C884        H887   1.082       .  S
C885        C886   1.382       .  A
C885       C1264   1.477       .  S
C886        H888   1.082       .  S
N889        N890   1.322       .  A
N889        C893   1.345       .  A
N889       Cu897   2.071       .  S
N890        C891   1.344       .  A
N890       Cu896   2.076       .  S
C891        C892   1.384       .  A
C891        H894   1.082       .  S
C892        C893   1.384       .  A
C892       C1287   1.479       .  S
C893        H895   1.081       .  S
Cu896       N899   2.076       .  S
Cu897       N907   2.070       .  S
Cu898       N900   2.071       .  S
Cu898       N906   2.071       .  S
N899        N900   1.321       .  A
N899        C903   1.345       .  A
N900        C901   1.344       .  A
C901        C902   1.385       .  A
C901        H904   1.082       .  S
C902        C903   1.386       .  A
C902       C1257   1.482       .  S
C903        H905   1.082       .  S
N906        N907   1.322       .  A
N906        C910   1.343       .  A
N907        C908   1.345       .  A
C908        C909   1.384       .  A
C908        H911   1.082       .  S
C909        C910   1.383       .  A
C909       C1477   1.474       .  S
C910        H912   1.082       .  S
N913        N914   1.322       .  A
N913        C917   1.345       .  A
N913       Cu921   2.075       .  S
N914        C915   1.346       .  A
N914       Cu920   2.078       .  S
C915        C916   1.385       .  A
C915        H918   1.082       .  S
C916        C917   1.383       .  A
C916       C1244   1.478       .  S
C917        H919   1.082       .  S
Cu920       N923   2.078       .  S
Cu921       N931   2.075       .  S
Cu922       N924   2.077       .  S
Cu922       N930   2.077       .  S
N923        N924   1.323       .  A
N923        C927   1.344       .  A
N924        C925   1.347       .  A
C925        C926   1.384       .  A
C925        H928   1.082       .  S
C926        C927   1.384       .  A
C926       C1254   1.478       .  S
C927        H929   1.082       .  S
N930        N931   1.322       .  A
N930        C934   1.345       .  A
N931        C932   1.346       .  A
C932        C933   1.383       .  A
C932        H935   1.082       .  S
C933        C934   1.384       .  A
C933       C1377   1.478       .  S
C934        H936   1.082       .  S
N937        N938   1.321       .  A
N937        C941   1.346       .  A
N937       Cu945   2.076       .  S
N938        C939   1.344       .  A
N938       Cu944   2.072       .  S
C939        C940   1.385       .  A
C939        H942   1.081       .  S
C940        C941   1.386       .  A
C940       C1234   1.482       .  S
C941        H943   1.082       .  S
Cu944       N947   2.072       .  S
Cu945       N955   2.077       .  S
Cu946       N948   2.081       .  S
Cu946       N954   2.081       .  S
N947        N948   1.322       .  A
N947        C951   1.344       .  A
N948        C949   1.347       .  A
C949        C950   1.385       .  A
C949        H952   1.082       .  S
C950        C951   1.383       .  A
C950       C1247   1.479       .  S
C951        H953   1.082       .  S
N954        N955   1.323       .  A
N954        C958   1.346       .  A
N955        C956   1.346       .  A
C956        C957   1.385       .  A
C956        H959   1.082       .  S
C957        C958   1.385       .  A
C957       C1224   1.482       .  S
C958        H960   1.082       .  S
N961        N962   1.321       .  A
N961        C965   1.346       .  A
N961       Cu969   2.075       .  S
N962        C963   1.341       .  A
N962       Cu968   2.060       .  S
C963        C964   1.382       .  A
C963        H966   1.082       .  S
C964        C965   1.386       .  A
C964       C1277   1.477       .  S
C965        H967   1.082       .  S
Cu968       N971   2.059       .  S
Cu969       N979   2.076       .  S
Cu970       N972   2.080       .  S
Cu970       N978   2.081       .  S
N971        N972   1.322       .  A
N971        C975   1.342       .  A
N972        C973   1.347       .  A
C973        C974   1.385       .  A
C973        H976   1.082       .  S
C974        C975   1.379       .  A
C974       C1217   1.471       .  S
C975        H977   1.082       .  S
N978        N979   1.323       .  A
N978        C982   1.345       .  A
N979        C980   1.345       .  A
C980        C981   1.385       .  A
C980        H983   1.082       .  S
C981        C982   1.386       .  A
C981       C1417   1.483       .  S
C982        H984   1.081       .  S
N985        N986   1.322       .  A
N985        C989   1.347       .  A
N985       Cu993   2.079       .  S
N986        C987   1.342       .  A
N986       Cu992   2.069       .  S
C987        C988   1.384       .  A
C987        H990   1.082       .  S
C988        C989   1.388       .  A
C988       C1237   1.483       .  S
C989        H991   1.081       .  S
Cu992       N995   2.068       .  S
Cu993      N1003   2.079       .  S
Cu994       N996   2.065       .  S
Cu994      N1002   2.065       .  S
N995        N996   1.320       .  A
N995        C999   1.344       .  A
N996        C997   1.344       .  A
C997        C998   1.384       .  A
C997       H1000   1.082       .  S
C998        C999   1.383       .  A
C998       C1214   1.476       .  S
C999       H1001   1.082       .  S
N1002      N1003   1.322       .  A
N1002      C1006   1.342       .  A
N1003      C1004   1.346       .  A
C1004      C1005   1.386       .  A
C1004      H1007   1.081       .  S
C1005      C1006   1.382       .  A
C1005      C1487   1.478       .  S
C1006      H1008   1.082       .  S
N1009      N1010   1.320       .  A
N1009      C1013   1.344       .  A
N1009     Cu1017   2.073       .  S
N1010      C1011   1.343       .  A
N1010     Cu1016   2.062       .  S
C1011      C1012   1.384       .  A
C1011      H1014   1.082       .  S
C1012      C1013   1.386       .  A
C1012      C1204   1.479       .  S
C1013      H1015   1.081       .  S
Cu1016     N1019   2.063       .  S
Cu1017     N1027   2.074       .  S
Cu1018     N1020   2.083       .  S
Cu1018     N1026   2.084       .  S
N1019      N1020   1.322       .  A
N1019      C1023   1.342       .  A
N1020      C1021   1.348       .  A
C1021      C1022   1.387       .  A
C1021      H1024   1.082       .  S
C1022      C1023   1.380       .  A
C1022      C1197   1.477       .  S
C1023      H1025   1.082       .  S
N1026      N1027   1.323       .  A
N1026      C1030   1.345       .  A
N1027      C1028   1.345       .  A
C1028      C1029   1.385       .  A
C1028      H1031   1.081       .  S
C1029      C1030   1.386       .  A
C1029      C1787   1.482       .  S
C1030      H1032   1.082       .  S
N1033      N1034   1.322       .  A
N1033      C1037   1.344       .  A
N1033     Cu1041   2.073       .  S
N1034      C1035   1.344       .  A
N1034     Cu1040   2.076       .  S
C1035      C1036   1.385       .  A
C1035      H1038   1.081       .  S
C1036      C1037   1.384       .  A
C1036      C1184   1.481       .  S
C1037      H1039   1.082       .  S
Cu1040     N1043   2.076       .  S
Cu1041     N1051   2.072       .  S
Cu1042     N1044   2.058       .  S
Cu1042     N1050   2.059       .  S
N1043      N1044   1.320       .  A
N1043      C1047   1.345       .  A
N1044      C1045   1.342       .  A
C1045      C1046   1.383       .  A
C1045      H1048   1.082       .  S
C1046      C1047   1.388       .  A
C1046      C1207   1.481       .  S
C1047      H1049   1.081       .  S
N1050      N1051   1.321       .  A
N1050      C1054   1.342       .  A
N1051      C1052   1.345       .  A
C1052      C1053   1.385       .  A
C1052      H1055   1.082       .  S
C1053      C1054   1.381       .  A
C1053      C1297   1.474       .  S
C1054      H1056   1.082       .  S
N1057      N1058   1.320       .  A
N1057      C1061   1.345       .  A
N1057     Cu1065   2.067       .  S
N1058      C1059   1.343       .  A
N1058     Cu1064   2.071       .  S
C1059      C1060   1.386       .  A
C1059      H1062   1.082       .  S
C1060      C1061   1.386       .  A
C1060      C1187   1.483       .  S
C1061      H1063   1.081       .  S
Cu1064     N1067   2.072       .  S
Cu1065     N1075   2.067       .  S
Cu1066     N1068   2.082       .  S
Cu1066     N1074   2.081       .  S
N1067      N1068   1.322       .  A
N1067      C1071   1.344       .  A
N1068      C1069   1.347       .  A
C1069      C1070   1.387       .  A
C1069      H1072   1.082       .  S
C1070      C1071   1.384       .  A
C1070      C1177   1.481       .  S
C1071      H1073   1.082       .  S
N1074      N1075   1.323       .  A
N1074      C1078   1.346       .  A
N1075      C1076   1.343       .  A
C1076      C1077   1.382       .  A
C1076      H1079   1.082       .  S
C1077      C1078   1.386       .  A
C1077      C1267   1.478   1_655  S
C1078      H1080   1.082       .  S
N1081      N1082   1.322       .  A
N1081      C1085   1.346       .  A
N1081     Cu1089   2.072       .  S
N1082      C1083   1.343       .  A
N1082     Cu1088   2.071       .  S
C1083      C1084   1.383       .  A
C1083      H1086   1.082       .  S
C1084      C1085   1.385       .  A
C1084      C1167   1.477       .  S
C1085      H1087   1.082       .  S
Cu1088     N1091   2.070       .  S
Cu1089     N1099   2.072       .  S
Cu1090     N1092   2.065       .  S
Cu1090     N1098   2.066       .  S
N1091      N1092   1.319       .  A
N1091      C1095   1.343       .  A
N1092      C1093   1.344       .  A
C1093      C1094   1.387       .  A
C1093      H1096   1.080       .  S
C1094      C1095   1.388       .  A
C1094      C1157   1.486       .  S
C1095      H1097   1.082       .  S
N1098      N1099   1.322       .  A
N1098      C1102   1.341       .  A
N1099      C1100   1.346       .  A
C1100      C1101   1.385       .  A
C1100      H1103   1.081       .  S
C1101      C1102   1.382       .  A
C1101      C1327   1.477       .  S
C1102      H1104   1.082       .  S
N1105      N1106   1.323       .  A
N1105      C1109   1.346       .  A
N1105     Cu1113   2.082       .  S
N1106      C1107   1.345       .  A
N1106     Cu1112   2.072       .  S
C1107      C1108   1.382       .  A
C1107      H1110   1.082       .  S
C1108      C1109   1.384       .  A
C1108      C1174   1.476       .  S
C1109      H1111   1.082       .  S
Cu1112     N1115   2.071       .  S
Cu1113     N1123   2.083       .  S
Cu1114     N1116   2.068       .  S
Cu1114     N1122   2.068       .  S
N1115      N1116   1.322       .  A
N1115      C1119   1.345       .  A
N1116      C1117   1.344       .  A
C1117      C1118   1.382       .  A
C1117      H1120   1.082       .  S
C1118      C1119   1.382       .  A
C1118      C1164   1.473       .  S
C1119      H1121   1.082       .  S
N1122      N1123   1.322       .  A
N1122      C1126   1.344       .  A
N1123      C1124   1.346       .  A
C1124      C1125   1.387       .  A
C1124      H1127   1.082       .  S
C1125      C1126   1.383       .  A
C1125      C1807   1.481       .  S
C1126      H1128   1.082       .  S
N1129      N1130   1.322       .  A
N1129      C1133   1.346       .  A
N1129     Cu1137   2.080       .  S
N1130      C1131   1.343       .  A
N1130     Cu1136   2.066       .  S
C1131      C1132   1.383       .  A
C1131      H1134   1.081       .  S
C1132      C1133   1.386       .  A
C1132      C1154   1.480       .  S
C1133      H1135   1.082       .  S
Cu1136     N1139   2.066       .  S
Cu1137     N1147   2.081       .  S
Cu1138     N1140   2.079       .  S
Cu1138     N1146   2.079       .  S
N1139      N1140   1.321       .  A
N1139      C1143   1.344       .  A
N1140      C1141   1.346       .  A
C1141      C1142   1.386       .  A
C1141      H1144   1.082       .  S
C1142      C1143   1.383       .  A
C1142      C1194   1.479       .  S
C1143      H1145   1.082       .  S
N1146      N1147   1.323       .  A
N1146      C1150   1.345       .  A
N1147      C1148   1.346       .  A
C1148      C1149   1.387       .  A
C1148      H1151   1.081       .  S
C1149      C1150   1.385       .  A
C1149      C1227   1.485       .  S
C1150      H1152   1.082       .  S
C1153      C1154   1.403       .  A
C1153      C1158   1.401       .  A
C1153      H1160   1.084       .  S
C1154      C1155   1.411       .  A
C1155      C1156   1.397       .  A
C1155     Br1162   1.921       .  S
C1156      C1157   1.405       .  A
C1156      H1161   1.083       .  S
C1157      C1158   1.415       .  A
C1158     Br1159   1.920       .  S
C1163      C1164   1.403       .  A
C1163      C1168   1.400       .  A
C1163      H1170   1.084       .  S
C1164      C1165   1.408       .  A
C1165      C1166   1.396       .  A
C1165     Br1172   1.920       .  S
C1166      C1167   1.403       .  A
C1166      H1171   1.083       .  S
C1167      C1168   1.411       .  A
C1168     Br1169   1.919       .  S
C1173      C1174   1.401       .  A
C1173      C1178   1.399       .  A
C1173      H1180   1.084       .  S
C1174      C1175   1.408       .  A
C1175      C1176   1.400       .  A
C1175     Br1182   1.919       .  S
C1176      C1177   1.405       .  A
C1176      H1181   1.083       .  S
C1177      C1178   1.413       .  A
C1178     Br1179   1.920       .  S
C1183      C1184   1.404       .  A
C1183      C1188   1.400       .  A
C1183      H1190   1.083       .  S
C1184      C1185   1.412       .  A
C1185      C1186   1.398       .  A
C1185     Br1192   1.920       .  S
C1186      C1187   1.404       .  A
C1186      H1191   1.083       .  S
C1187      C1188   1.413       .  A
C1188     Br1189   1.920       .  S
C1193      C1194   1.405       .  A
C1193      C1198   1.400       .  A
C1193      H1200   1.084       .  S
C1194      C1195   1.411       .  A
C1195      C1196   1.398       .  A
C1195     Br1202   1.920       .  S
C1196      C1197   1.403       .  A
C1196      H1201   1.084       .  S
C1197      C1198   1.409       .  A
C1198     Br1199   1.919       .  S
C1203      C1204   1.404       .  A
C1203      C1208   1.398       .  A
C1203      H1210   1.083       .  S
C1204      C1205   1.409       .  A
C1205      C1206   1.398       .  A
C1205     Br1212   1.920       .  S
C1206      C1207   1.405       .  A
C1206      H1211   1.083       .  S
C1207      C1208   1.412       .  A
C1208     Br1209   1.920       .  S
C1213      C1214   1.404       .  A
C1213      C1218   1.399       .  A
C1213      H1220   1.084       .  S
C1214      C1215   1.412       .  A
C1215      C1216   1.398       .  A
C1215     Br1222   1.920       .  S
C1216      C1217   1.401       .  A
C1216      H1221   1.084       .  S
C1217      C1218   1.406       .  A
C1218     Br1219   1.918       .  S
C1223      C1224   1.404       .  A
C1223      C1228   1.400       .  A
C1223      H1230   1.083       .  S
C1224      C1225   1.411       .  A
C1225      C1226   1.400       .  A
C1225     Br1232   1.919       .  S
C1226      C1227   1.405       .  A
C1226      H1231   1.083       .  S
C1227      C1228   1.413       .  A
C1228     Br1229   1.920       .  S
C1233      C1234   1.405       .  A
C1233      C1238   1.402       .  A
C1233      H1240   1.083       .  S
C1234      C1235   1.411       .  A
C1235      C1236   1.397       .  A
C1235     Br1242   1.920       .  S
C1236      C1237   1.404       .  A
C1236      H1241   1.083       .  S
C1237      C1238   1.412       .  A
C1238     Br1239   1.919       .  S
C1243      C1244   1.403       .  A
C1243      C1248   1.399       .  A
C1243      H1250   1.084       .  S
C1244      C1245   1.410       .  A
C1245      C1246   1.401       .  A
C1245     Br1252   1.919       .  S
C1246      C1247   1.404       .  A
C1246      H1251   1.083       .  S
C1247      C1248   1.411       .  A
C1248     Br1249   1.920       .  S
C1253      C1254   1.403       .  A
C1253      C1258   1.401       .  A
C1253      H1260   1.083       .  S
C1254      C1255   1.409       .  A
C1255      C1256   1.398       .  A
C1255     Br1262   1.919       .  S
C1256      C1257   1.405       .  A
C1256      H1261   1.083       .  S
C1257      C1258   1.412       .  A
C1258     Br1259   1.919       .  S
C1263      C1264   1.404       .  A
C1263      C1268   1.398       .  A
C1263      H1270   1.084       .  S
C1264      C1265   1.410       .  A
C1265      C1266   1.398       .  A
C1265     Br1272   1.920       .  S
C1266      C1267   1.404       .  A
C1266      H1271   1.083       .  S
C1267      C1268   1.410       .  A
C1268     Br1269   1.919       .  S
C1273      C1274   1.406       .  A
C1273      C1278   1.395       .  A
C1273      H1280   1.083       .  S
C1274      C1275   1.415       .  A
C1275      C1276   1.401       .  A
C1275     Br1282   1.919       .  S
C1276      C1277   1.402       .  A
C1276      H1281   1.084       .  S
C1277      C1278   1.409       .  A
C1278     Br1279   1.921       .  S
C1283      C1284   1.403       .  A
C1283      C1288   1.398       .  A
C1283      H1290   1.084       .  S
C1284      C1285   1.410       .  A
C1285      C1286   1.399       .  A
C1285     Br1292   1.919       .  S
C1286      C1287   1.404       .  A
C1286      H1291   1.083       .  S
C1287      C1288   1.412       .  A
C1288     Br1289   1.920       .  S
C1293      C1294   1.404       .  A
C1293      C1298   1.399       .  A
C1293      H1300   1.084       .  S
C1294      C1295   1.411       .  A
C1295      C1296   1.397       .  A
C1295     Br1302   1.920       .  S
C1296      C1297   1.402       .  A
C1296      H1301   1.084       .  S
C1297      C1298   1.409       .  A
C1298     Br1299   1.920       .  S
C1303      C1304   1.403       .  A
C1303      C1308   1.397       .  A
C1303      H1310   1.084       .  S
C1304      C1305   1.410       .  A
C1305      C1306   1.396       .  A
C1305     Br1312   1.920       .  S
C1306      C1307   1.403       .  A
C1306      H1311   1.083       .  S
C1307      C1308   1.413       .  A
C1308     Br1309   1.921       .  S
C1313      C1314   1.404       .  A
C1313      C1318   1.397       .  A
C1313      H1320   1.083       .  S
C1314      C1315   1.410       .  A
C1315      C1316   1.399       .  A
C1315     Br1322   1.919       .  S
C1316      C1317   1.405       .  A
C1316      H1321   1.083       .  S
C1317      C1318   1.413       .  A
C1318     Br1319   1.921       .  S
C1323      C1324   1.404       .  A
C1323      C1328   1.399   1_565  A
C1323      H1330   1.084       .  S
C1324      C1325   1.409       .  A
C1325      C1326   1.395   1_565  A
C1325     Br1332   1.920       .  S
C1326      C1327   1.403       .  A
C1326      H1331   1.083       .  S
C1327      C1328   1.411       .  A
C1328     Br1329   1.920       .  S
C1333      C1334   1.403       .  A
C1333      C1338   1.398       .  A
C1333      H1340   1.083       .  S
C1334      C1335   1.408       .  A
C1335      C1336   1.399       .  A
C1335     Br1342   1.919       .  S
C1336      C1337   1.403       .  A
C1336      H1341   1.084       .  S
C1337      C1338   1.407       .  A
C1338     Br1339   1.919       .  S
C1343      C1344   1.402       .  A
C1343      C1348   1.396       .  A
C1343      H1350   1.084       .  S
C1344      C1345   1.412       .  A
C1345      C1346   1.399       .  A
C1345     Br1352   1.919       .  S
C1346      C1347   1.402       .  A
C1346      H1351   1.084       .  S
C1347      C1348   1.409       .  A
C1348     Br1349   1.920       .  S
C1353      C1354   1.402       .  A
C1353      C1358   1.401       .  A
C1353      H1360   1.084       .  S
C1354      C1355   1.408       .  A
C1355      C1356   1.398       .  A
C1355     Br1362   1.919       .  S
C1356      C1357   1.404       .  A
C1356      H1361   1.083       .  S
C1357      C1358   1.414       .  A
C1358     Br1359   1.920       .  S
C1363      C1364   1.403       .  A
C1363      C1368   1.397       .  A
C1363      H1370   1.084       .  S
C1364      C1365   1.409       .  A
C1365      C1366   1.398       .  A
C1365     Br1372   1.919       .  S
C1366      C1367   1.403       .  A
C1366      H1371   1.083       .  S
C1367      C1368   1.410       .  A
C1368     Br1369   1.920       .  S
C1373      C1374   1.402       .  A
C1373      C1378   1.400   1_565  A
C1373      H1380   1.084       .  S
C1374      C1375   1.408       .  A
C1375      C1376   1.400   1_565  A
C1375     Br1382   1.919       .  S
C1376      C1377   1.404       .  A
C1376      H1381   1.083       .  S
C1377      C1378   1.411       .  A
C1378     Br1379   1.919       .  S
C1383      C1384   1.405       .  A
C1383      C1388   1.396       .  A
C1383      H1390   1.083       .  S
C1384      C1385   1.411       .  A
C1385      C1386   1.396       .  A
C1385     Br1392   1.920       .  S
C1386      C1387   1.402       .  A
C1386      H1391   1.084       .  S
C1387      C1388   1.408       .  A
C1388     Br1389   1.920       .  S
C1393      C1394   1.402       .  A
C1393      C1398   1.400       .  A
C1393      H1400   1.084       .  S
C1394      C1395   1.409       .  A
C1395      C1396   1.397       .  A
C1395     Br1402   1.920       .  S
C1396      C1397   1.404       .  A
C1396      H1401   1.084       .  S
C1397      C1398   1.411       .  A
C1398     Br1399   1.919       .  S
C1403      C1404   1.402       .  A
C1403      C1408   1.397       .  A
C1403      H1410   1.084       .  S
C1404      C1405   1.412       .  A
C1405      C1406   1.398       .  A
C1405     Br1412   1.920       .  S
C1406      C1407   1.400       .  A
C1406      H1411   1.084       .  S
C1407      C1408   1.409       .  A
C1408     Br1409   1.919       .  S
C1413      C1414   1.404       .  A
C1413      C1418   1.400       .  A
C1413      H1420   1.083       .  S
C1414      C1415   1.411       .  A
C1415      C1416   1.400       .  A
C1415     Br1422   1.919       .  S
C1416      C1417   1.405       .  A
C1416      H1421   1.083       .  S
C1417      C1418   1.412       .  A
C1418     Br1419   1.920       .  S
C1423      C1424   1.402       .  A
C1423      C1428   1.399       .  A
C1423      H1430   1.084       .  S
C1424      C1425   1.410       .  A
C1425      C1426   1.399       .  A
C1425     Br1432   1.919       .  S
C1426      C1427   1.402       .  A
C1426      H1431   1.084       .  S
C1427      C1428   1.411       .  A
C1428     Br1429   1.920       .  S
C1433      C1434   1.403       .  A
C1433      C1438   1.398       .  A
C1433      H1440   1.084       .  S
C1434      C1435   1.411       .  A
C1435      C1436   1.397       .  A
C1435     Br1442   1.920       .  S
C1436      C1437   1.401       .  A
C1436      H1441   1.084       .  S
C1437      C1438   1.411       .  A
C1438     Br1439   1.920       .  S
C1443      C1444   1.402       .  A
C1443      C1448   1.398       .  A
C1443      H1450   1.084       .  S
C1444      C1445   1.410       .  A
C1445      C1446   1.398       .  A
C1445     Br1452   1.919       .  S
C1446      C1447   1.403   1_455  A
C1446      H1451   1.083   1_455  S
C1447      C1448   1.412   1_655  A
C1448     Br1449   1.920   1_455  S
C1453      C1454   1.403       .  A
C1453      C1458   1.401       .  A
C1453      H1460   1.084       .  S
C1454      C1455   1.409       .  A
C1455      C1456   1.401       .  A
C1455     Br1462   1.919       .  S
C1456      C1457   1.404       .  A
C1456      H1461   1.084       .  S
C1457      C1458   1.410       .  A
C1458     Br1459   1.919       .  S
C1463      C1464   1.406       .  A
C1463      C1468   1.402       .  A
C1463      H1470   1.083       .  S
C1464      C1465   1.412       .  A
C1465      C1466   1.398       .  A
C1465     Br1472   1.920       .  S
C1466      C1467   1.405       .  A
C1466      H1471   1.083       .  S
C1467      C1468   1.412       .  A
C1468     Br1469   1.920       .  S
C1473      C1474   1.403       .  A
C1473      C1478   1.397       .  A
C1473      H1480   1.084       .  S
C1474      C1475   1.413       .  A
C1475      C1476   1.398       .  A
C1475     Br1482   1.920       .  S
C1476      C1477   1.402       .  A
C1476      H1481   1.084       .  S
C1477      C1478   1.408       .  A
C1478     Br1479   1.919       .  S
C1483      C1484   1.405       .  A
C1483      C1488   1.399   1_556  A
C1483      H1490   1.083       .  S
C1484      C1485   1.411   1_556  A
C1485      C1486   1.397       .  A
C1485     Br1492   1.920   1_554  S
C1486      C1487   1.404       .  A
C1486      H1491   1.083       .  S
C1487      C1488   1.410       .  A
C1488     Br1489   1.920       .  S
C1493      C1494   1.401       .  A
C1493      C1498   1.398       .  A
C1493      H1500   1.084       .  S
C1494      C1495   1.409       .  A
C1495      C1496   1.400       .  A
C1495     Br1502   1.919       .  S
C1496      C1497   1.405       .  A
C1496      H1501   1.083       .  S
C1497      C1498   1.414       .  A
C1498     Br1499   1.920       .  S
C1503      C1504   1.405       .  A
C1503      C1508   1.402       .  A
C1503      H1510   1.083       .  S
C1504      C1505   1.413       .  A
C1505      C1506   1.399       .  A
C1505     Br1512   1.920       .  S
C1506      C1507   1.402       .  A
C1506      H1511   1.084       .  S
C1507      C1508   1.410       .  A
C1508     Br1509   1.919       .  S
C1513      C1514   1.405       .  A
C1513      C1518   1.397       .  A
C1513      H1520   1.083       .  S
C1514      C1515   1.414       .  A
C1515      C1516   1.400       .  A
C1515     Br1522   1.919       .  S
C1516      C1517   1.402       .  A
C1516      H1521   1.084       .  S
C1517      C1518   1.408       .  A
C1518     Br1519   1.920       .  S
C1523      C1524   1.404       .  A
C1523      C1528   1.400       .  A
C1523      H1530   1.083       .  S
C1524      C1525   1.411       .  A
C1525      C1526   1.398       .  A
C1525     Br1532   1.920       .  S
C1526      C1527   1.401       .  A
C1526      H1531   1.084       .  S
C1527      C1528   1.409       .  A
C1528     Br1529   1.919       .  S
C1533      C1534   1.404       .  A
C1533      C1538   1.400       .  A
C1533      H1540   1.083       .  S
C1534      C1535   1.411       .  A
C1535      C1536   1.396       .  A
C1535     Br1542   1.920       .  S
C1536      C1537   1.403       .  A
C1536      H1541   1.084       .  S
C1537      C1538   1.411       .  A
C1538     Br1539   1.919       .  S
C1543      C1544   1.404       .  A
C1543      C1548   1.399       .  A
C1543      H1550   1.083       .  S
C1544      C1545   1.412       .  A
C1545      C1546   1.399       .  A
C1545     Br1552   1.920       .  S
C1546      C1547   1.402       .  A
C1546      H1551   1.084       .  S
C1547      C1548   1.409       .  A
C1548     Br1549   1.919       .  S
C1553      C1554   1.402       .  A
C1553      C1558   1.401       .  A
C1553      H1560   1.084       .  S
C1554      C1555   1.410       .  A
C1555      C1556   1.395       .  A
C1555     Br1562   1.920       .  S
C1556      C1557   1.401       .  A
C1556      H1561   1.084       .  S
C1557      C1558   1.413       .  A
C1558     Br1559   1.920       .  S
C1563      C1564   1.403       .  A
C1563      C1568   1.396       .  A
C1563      H1570   1.084       .  S
C1564      C1565   1.408       .  A
C1565      C1566   1.399       .  A
C1565     Br1572   1.919       .  S
C1566      C1567   1.405       .  A
C1566      H1571   1.083       .  S
C1567      C1568   1.411       .  A
C1568     Br1569   1.920       .  S
C1573      C1574   1.402       .  A
C1573      C1578   1.401       .  A
C1573      H1580   1.084       .  S
C1574      C1575   1.410       .  A
C1575      C1576   1.399       .  A
C1575     Br1582   1.920       .  S
C1576      C1577   1.404       .  A
C1576      H1581   1.083       .  S
C1577      C1578   1.414       .  A
C1578     Br1579   1.920       .  S
C1583      C1584   1.405       .  A
C1583      C1588   1.397       .  A
C1583      H1590   1.083       .  S
C1584      C1585   1.413       .  A
C1585      C1586   1.400       .  A
C1585     Br1592   1.920       .  S
C1586      C1587   1.403       .  A
C1586      H1591   1.084       .  S
C1587      C1588   1.407       .  A
C1588     Br1589   1.919       .  S
C1593      C1594   1.405       .  A
C1593      C1598   1.400   1_565  A
C1593      H1600   1.083       .  S
C1594      C1595   1.412       .  A
C1595      C1596   1.398   1_565  A
C1595     Br1602   1.920       .  S
C1596      C1597   1.404       .  A
C1596      H1601   1.083       .  S
C1597      C1598   1.413       .  A
C1598     Br1599   1.920       .  S
C1603      C1604   1.404       .  A
C1603      C1608   1.399       .  A
C1603      H1610   1.083       .  S
C1604      C1605   1.413       .  A
C1605      C1606   1.400       .  A
C1605     Br1612   1.920       .  S
C1606      C1607   1.402       .  A
C1606      H1611   1.084       .  S
C1607      C1608   1.409       .  A
C1608     Br1609   1.920       .  S
C1613      C1614   1.405       .  A
C1613      C1618   1.396       .  A
C1613      H1620   1.083       .  S
C1614      C1615   1.415       .  A
C1615      C1616   1.399       .  A
C1615     Br1622   1.920       .  S
C1616      C1617   1.400       .  A
C1616      H1621   1.084       .  S
C1617      C1618   1.405       .  A
C1618     Br1619   1.919       .  S
C1623      C1624   1.405       .  A
C1623      C1628   1.397   1_556  A
C1623      H1630   1.083       .  S
C1624      C1625   1.412       .  A
C1625      C1626   1.397   1_556  A
C1625     Br1632   1.920       .  S
C1626      C1627   1.403       .  A
C1626      H1631   1.084       .  S
C1627      C1628   1.409       .  A
C1628     Br1629   1.920       .  S
C1633      C1634   1.403       .  A
C1633      C1638   1.398       .  A
C1633      H1640   1.083       .  S
C1634      C1635   1.410       .  A
C1635      C1636   1.397       .  A
C1635     Br1642   1.920       .  S
C1636      C1637   1.403       .  A
C1636      H1641   1.083       .  S
C1637      C1638   1.411       .  A
C1638     Br1639   1.920       .  S
C1643      C1644   1.403       .  A
C1643      C1648   1.400       .  A
C1643      H1650   1.084       .  S
C1644      C1645   1.410       .  A
C1645      C1646   1.396       .  A
C1645     Br1652   1.920       .  S
C1646      C1647   1.400       .  A
C1646      H1651   1.084       .  S
C1647      C1648   1.409       .  A
C1648     Br1649   1.919       .  S
C1653      C1654   1.404       .  A
C1653      C1658   1.398       .  A
C1653      H1660   1.083       .  S
C1654      C1655   1.411       .  A
C1655      C1656   1.394       .  A
C1655     Br1662   1.921       .  S
C1656      C1657   1.403       .  A
C1656      H1661   1.083       .  S
C1657      C1658   1.412       .  A
C1658     Br1659   1.920       .  S
C1663      C1664   1.403       .  A
C1663      C1668   1.397       .  A
C1663      H1670   1.084       .  S
C1664      C1665   1.409       .  A
C1665      C1666   1.399       .  A
C1665     Br1672   1.919       .  S
C1666      C1667   1.405       .  A
C1666      H1671   1.084       .  S
C1667      C1668   1.410       .  A
C1668     Br1669   1.920       .  S
C1673      C1674   1.403       .  A
C1673      C1678   1.397   1_655  A
C1673      H1680   1.083       .  S
C1674      C1675   1.411   1_655  A
C1675      C1676   1.402       .  A
C1675     Br1682   1.919   1_455  S
C1676      C1677   1.404       .  A
C1676      H1681   1.084       .  S
C1677      C1678   1.411       .  A
C1678     Br1679   1.920       .  S
C1683      C1684   1.404       .  A
C1683      C1688   1.399       .  A
C1683      H1690   1.083       .  S
C1684      C1685   1.410       .  A
C1685      C1686   1.398       .  A
C1685     Br1692   1.920       .  S
C1686      C1687   1.403       .  A
C1686      H1691   1.084       .  S
C1687      C1688   1.408       .  A
C1688     Br1689   1.919       .  S
C1693      C1694   1.404       .  A
C1693      C1698   1.401       .  A
C1693      H1700   1.083       .  S
C1694      C1695   1.411       .  A
C1695      C1696   1.398       .  A
C1695     Br1702   1.920       .  S
C1696      C1697   1.404       .  A
C1696      H1701   1.083       .  S
C1697      C1698   1.413       .  A
C1698     Br1699   1.919       .  S
C1703      C1704   1.402       .  A
C1703      C1708   1.398       .  A
C1703      H1710   1.084       .  S
C1704      C1705   1.407       .  A
C1705      C1706   1.400       .  A
C1705     Br1712   1.918       .  S
C1706      C1707   1.405       .  A
C1706      H1711   1.083       .  S
C1707      C1708   1.410       .  A
C1708     Br1709   1.919       .  S
C1713      C1714   1.406       .  A
C1713      C1718   1.397       .  A
C1713      H1720   1.083       .  S
C1714      C1715   1.412       .  A
C1715      C1716   1.397       .  A
C1715     Br1722   1.919       .  S
C1716      C1717   1.403       .  A
C1716      H1721   1.083       .  S
C1717      C1718   1.408       .  A
C1718     Br1719   1.921       .  S
C1723      C1724   1.402       .  A
C1723      C1728   1.397       .  A
C1723      H1730   1.084       .  S
C1724      C1725   1.410       .  A
C1725      C1726   1.399       .  A
C1725     Br1732   1.920       .  S
C1726      C1727   1.404       .  A
C1726      H1731   1.083       .  S
C1727      C1728   1.412       .  A
C1728     Br1729   1.920       .  S
C1733      C1734   1.404       .  A
C1733      C1738   1.399       .  A
C1733      H1740   1.083       .  S
C1734      C1735   1.414       .  A
C1735      C1736   1.401       .  A
C1735     Br1742   1.920       .  S
C1736      C1737   1.401       .  A
C1736      H1741   1.084       .  S
C1737      C1738   1.408       .  A
C1738     Br1739   1.919       .  S
C1743      C1744   1.403       .  A
C1743      C1748   1.398       .  A
C1743      H1750   1.084       .  S
C1744      C1745   1.408       .  A
C1745      C1746   1.397       .  A
C1745     Br1752   1.920       .  S
C1746      C1747   1.402       .  A
C1746      H1751   1.084       .  S
C1747      C1748   1.408       .  A
C1748     Br1749   1.919       .  S
C1753      C1754   1.404       .  A
C1753      C1758   1.399       .  A
C1753      H1760   1.084       .  S
C1754      C1755   1.410       .  A
C1755      C1756   1.401       .  A
C1755     Br1762   1.919       .  S
C1756      C1757   1.404       .  A
C1756      H1761   1.083       .  S
C1757      C1758   1.411       .  A
C1758     Br1759   1.920       .  S
C1763      C1764   1.403       .  A
C1763      C1768   1.397   1_655  A
C1763      H1770   1.083       .  S
C1764      C1765   1.410       .  A
C1765      C1766   1.400   1_655  A
C1765     Br1772   1.919       .  S
C1766      C1767   1.405       .  A
C1766      H1771   1.084       .  S
C1767      C1768   1.411       .  A
C1768     Br1769   1.920       .  S
C1773      C1774   1.404       .  A
C1773      C1778   1.398       .  A
C1773      H1780   1.083       .  S
C1774      C1775   1.411       .  A
C1775      C1776   1.399       .  A
C1775     Br1782   1.919       .  S
C1776      C1777   1.403       .  A
C1776      H1781   1.083       .  S
C1777      C1778   1.410       .  A
C1778     Br1779   1.920       .  S
C1783      C1784   1.403       .  A
C1783      C1788   1.401   1_556  A
C1783      H1790   1.084       .  S
C1784      C1785   1.409       .  A
C1785      C1786   1.399   1_556  A
C1785     Br1792   1.919       .  S
C1786      C1787   1.404       .  A
C1786      H1791   1.083       .  S
C1787      C1788   1.413       .  A
C1788     Br1789   1.920       .  S
C1793      C1794   1.403       .  A
C1793      C1798   1.398       .  A
C1793      H1800   1.083       .  S
C1794      C1795   1.411       .  A
C1795      C1796   1.396       .  A
C1795     Br1802   1.921       .  S
C1796      C1797   1.403       .  A
C1796      H1801   1.083       .  S
C1797      C1798   1.410       .  A
C1798     Br1799   1.919       .  S
C1803      C1804   1.403       .  A
C1803      C1808   1.402       .  A
C1803      H1810   1.084       .  S
C1804      C1805   1.411       .  A
C1805      C1806   1.397       .  A
C1805     Br1812   1.921       .  S
C1806      C1807   1.402       .  A
C1806      H1811   1.083       .  S
C1807      C1808   1.413       .  A
C1808     Br1809   1.920       .  S
C1813      C1814   1.404       .  A
C1813      C1818   1.399       .  A
C1813      H1820   1.083       .  S
C1814      C1815   1.411       .  A
C1815      C1816   1.397       .  A
C1815     Br1822   1.920       .  S
C1816      C1817   1.403       .  A
C1816      H1821   1.083       .  S
C1817      C1818   1.410       .  A
C1818     Br1819   1.919       .  S
C1823      C1824   1.404       .  A
C1823      C1828   1.401       .  A
C1823      H1830   1.084       .  S
C1824      C1825   1.412       .  A
C1825      C1826   1.398       .  A
C1825     Br1832   1.920       .  S
C1826      C1827   1.403       .  A
C1826      H1831   1.083       .  S
C1827      C1828   1.412       .  A
C1828     Br1829   1.919       .  S
C1833      C1834   1.404       .  A
C1833      C1838   1.402       .  A
C1833      H1840   1.083       .  S
C1834      C1835   1.409       .  A
C1835      C1836   1.394       .  A
C1835     Br1842   1.921       .  S
C1836      C1837   1.403       .  A
C1836      H1841   1.083       .  S
C1837      C1838   1.411       .  A
C1838     Br1839   1.919       .  S
C1843      C1844   1.404       .  A
C1843      C1848   1.397       .  A
C1843      H1850   1.083       .  S
C1844      C1845   1.412       .  A
C1845      C1846   1.397   1_545  A
C1845     Br1852   1.920       .  S
C1846      C1847   1.401       .  A
C1846      H1851   1.084       .  S
C1847      C1848   1.407   1_565  A
C1848     Br1849   1.919   1_545  S
C1853      C1854   1.405       .  A
C1853      C1858   1.398       .  A
C1853      H1860   1.084       .  S
C1854      C1855   1.412       .  A
C1855      C1856   1.400       .  A
C1855     Br1862   1.919       .  S
C1856      C1857   1.402       .  A
C1856      H1861   1.084       .  S
C1857      C1858   1.409       .  A
C1858     Br1859   1.920       .  S
C1863      C1864   1.405       .  A
C1863      C1868   1.400       .  A
C1863      H1870   1.083       .  S
C1864      C1865   1.410       .  A
C1865      C1866   1.397       .  A
C1865     Br1872   1.921       .  S
C1866      C1867   1.406       .  A
C1866      H1871   1.083       .  S
C1867      C1868   1.411       .  A
C1868     Br1869   1.919       .  S
