geometry optimzed in LAMMPS
_audit_creation_date              2020-11-30 
_audit_creation_method            'lammps2cif' 
_symmetry_space_group_name_H-M    'P1' 
_symmetry_Int_Tables_number       1 
_symmetry_cell_setting            triclinic 
loop_ 
_symmetry_equiv_pos_as_xyz 
  x,y,z 
_cell_length_a                    36.18633628 
_cell_length_b                    39.914993126891446 
_cell_length_c                    40.51490266906857 
_cell_angle_alpha                 90.43045802189162 
_cell_angle_beta                  90.30952754142908 
_cell_angle_gamma                 90.07363912674657 
loop_ 
_atom_site_label 
_atom_site_type_symbol 
_atom_site_fract_x 
_atom_site_fract_y 
_atom_site_fract_z 
_atom_site_charge 
C1          C  0.88456967  0.85445228  0.81205723     0.80600
N2          N  0.90003456  0.82996950  0.83058602    -0.77700
C3          C  0.88217424  0.81753570  0.85720826     0.83100
N4          N  0.84801048  0.82904924  0.86466529    -0.77600
C5          C  0.83213859  0.85342367  0.84642401     0.83200
N6          N  0.85045738  0.86613765  0.82020378    -0.79300
C7          C  0.87237439  0.71419298  0.29208106     0.80600
N8          N  0.84415526  0.70033927  0.30915070    -0.77700
C9          C  0.82982124  0.71610976  0.33597309     0.83100
N10         N  0.84319120  0.74652136  0.34509640    -0.77600
C11         C  0.87097384  0.76077664  0.32786817     0.83200
N12         N  0.88569270  0.74456921  0.30161960    -0.79300
Zr13       Zr  0.04663291  0.46085612  0.00107720     2.17500
O14         O  0.02917805  0.40282129  0.01141484    -0.50900
O15         O  0.08384265  0.44109618  0.95579819    -0.74100
O16         O  0.99512844  0.44227575  0.96662134    -0.80900
O17         O  0.12069513  0.45556383  0.06861822    -0.82600
O18         O  0.96771755  0.48878465  0.94568214    -0.78300
O19         O  0.08287381  0.42407006  0.03599731    -0.89900
O20         O  0.11596535  0.48474195  0.93472151    -0.75900
O21         O  0.04364257  0.50371847  0.96053973    -0.85400
O22         O  0.10327878  0.49116333  0.00510962    -0.85100
O23         O  0.99265386  0.49276569  0.01524755    -0.71800
O24         O  0.04914330  0.48177378  0.05654167    -0.83900
Zr25       Zr  0.04905213  0.58927956  0.03480583     2.26400
Zr26       Zr  0.99128741  0.53691084  0.97560912     2.06300
Zr27       Zr  0.10511269  0.51357001  0.05985183     2.10000
Zr28       Zr  0.09966225  0.53460736  0.96547772     1.78800
O29         O  0.11455767  0.49810285  0.11726550    -0.92700
O30         O  0.08472800  0.54797049  0.90832155    -0.40600
O31         O  0.10312502  0.55773550  0.02030749    -0.77200
O32         O  0.04750522  0.56847803  0.97896268    -0.95900
O33         O  0.99257220  0.55877747  0.03056641    -0.89200
O34         O  0.05237477  0.54606357  0.07479862    -0.92000
C35         C  0.10704846  0.45370279  0.93571628     1.01700
C36         C  0.10827688  0.42742413  0.05802904     1.14700
C37         C  0.97167680  0.45696538  0.94780825     1.05400
O38         O  0.97898597  0.55117813  0.91827124    -0.94200
O39         O  0.97630081  0.59530981  0.96719114    -0.89900
O40         O  0.01042096  0.62665935  0.00305541    -0.83100
C41         C  0.98646997  0.62340527  0.97978795     1.12100
O42         O  0.96790112  0.46195747  0.08438942    -0.96200
Zr43       Zr  0.99654510  0.51512363  0.07011048     1.88900
O44         O  0.01055824  0.60943606  0.07956120    -0.72800
O45         O  0.92555805  0.53659050  0.98811942    -0.52100
O46         O  0.92932137  0.51721517  0.07156429    -0.96700
O47         O  0.01272148  0.49906362  0.12627699    -0.54000
O48         O  0.97947013  0.56500368  0.10080005    -0.73300
C49         C  0.98790099  0.59617934  0.09987111     0.99000
O50         O  0.07268262  0.64498872  0.02215285    -0.62100
O51         O  0.17102837  0.51556713  0.04804664    -0.56900
O52         O  0.09745259  0.60723125  0.07292418    -0.93600
O53         O  0.12781182  0.56103882  0.09123999    -0.92000
O54         O  0.16683832  0.53212016  0.96806392    -0.92400
O55         O  0.12997343  0.58598487  0.94795030    -0.91200
C56         C  0.12161203  0.59260565  0.09105840     1.17900
H57         H  0.12431730  0.47680732  0.00123625     0.33800
H58         H  0.04704179  0.58679463  0.96352117     0.44700
H59         H  0.05510220  0.55511441  0.09686417     0.38200
H60         H  0.97057771  0.47920670  0.01350009     0.34700
H61         H  0.10824921  0.54496230  0.89627982     0.26500
H62         H  0.92230487  0.55451738  0.00485783     0.32400
H63         H  0.92113943  0.50662724  0.05059454     0.38300
H64         H  0.17470613  0.52881849  0.94488973     0.32800
H65         H  0.18320461  0.51541586  0.06998584     0.31600
H66         H  0.14172821  0.49751760  0.12024801     0.33300
H67         H  0.02166398  0.51989083  0.13707871     0.32300
H68         H  0.11544082  0.60422946  0.95825894     0.36300
H69         H  0.06912453  0.65851582  0.04248540     0.29000
H70         H  0.02988577  0.39131189  0.98968132     0.33300
H71         H  0.97908475  0.44542043  0.06909085     0.36100
H72         H  0.17688605  0.49339920  0.03832161     0.28700
H73         H  0.09978240  0.64244637  0.02001903     0.41600
H74         H  0.00013056  0.54173206  0.90593754     0.31600
H75         H  0.06902561  0.52914555  0.90053671     0.39300
H76         H  0.03510009  0.48501196  0.12391996     0.31100
H77         H  0.91344235  0.54530160  0.96798290     0.31200
H78         H  0.00272809  0.40347624  0.01749418     0.31400
C79         C  0.68460629  0.37571997  0.82248792     0.80600
N80         N  0.72003852  0.38418672  0.82983316    -0.77700
C81         C  0.73995097  0.36572713  0.85153492     0.83100
N82         N  0.72410617  0.33894697  0.86626071    -0.77600
C83         C  0.68871079  0.33040426  0.85892262     0.83200
N84         N  0.66918342  0.34851105  0.83674513    -0.79300
Zr85       Zr  0.53689266  0.09334306  0.03250055     2.17500
O86         O  0.51051237  0.14793461  0.01955449    -0.50900
O87         O  0.57890475  0.11600503  0.07401220    -0.74100
O88         O  0.49270341  0.11167805  0.07394827    -0.80900
O89         O  0.59498448  0.09823945  0.95478355    -0.82600
O90         O  0.46908212  0.06546463  0.09856289    -0.78300
O91         O  0.56825682  0.13039124  0.99468058    -0.89900
O92         O  0.61255689  0.07311051  0.09499038    -0.75900
O93         O  0.54221861  0.05222988  0.07433128    -0.85400
O94         O  0.59332703  0.06442719  0.02266576    -0.85100
O95         O  0.48277171  0.05902675  0.02553934    -0.71800
O96         O  0.53031699  0.06945125  0.97823840    -0.83900
Zr97       Zr  0.53951195  0.96261879  0.00446132     2.26400
Zr98       Zr  0.48944427  0.01715925  0.06724055     2.06300
Zr99       Zr  0.58667243  0.03988770  0.96896436     2.10000
Zr100      Zr  0.59793485  0.02267558  0.06405146     1.78800
O101        O  0.57903086  0.04484518  0.90949330    -0.92700
O102        O  0.59660693  0.00644424  0.12188469    -0.40600
O103        O  0.59303904  0.99782373  0.01037321    -0.77200
O104        O  0.54539133  0.98640703  0.05892909    -0.95900
O105        O  0.48328398  0.99164534  0.01398808    -0.89200
O106        O  0.53453776  0.00357501  0.96216427    -0.92000
C107        C  0.60289097  0.10397513  0.09406730     1.01700
C108        C  0.58651055  0.12649872  0.96789254     1.14700
C109        C  0.47244493  0.09722603  0.09552923     1.05400
O110        O  0.49836694  0.00346910  0.12517693    -0.94200
O111        O  0.47018440  0.95988557  0.07407486    -0.89900
O112        O  0.50288519  0.92608403  0.03950643    -0.83100
C113        C  0.47899355  0.93109848  0.06236447     1.12100
O114        O  0.44287922  0.07990004  0.95175545    -0.96200
Zr115      Zr  0.47834971  0.03252778  0.97224119     1.88900
O116        O  0.49832965  0.93894389  0.96283813    -0.72800
O117        O  0.42216987  0.01602754  0.07001002    -0.52100
O118        O  0.41424143  0.02768866  0.98958122    -0.96700
O119        O  0.48172093  0.04334362  0.91319019    -0.54000
O120        O  0.45860893  0.97990001  0.94707663    -0.73300
C121        C  0.47039182  0.94960090  0.94636622     0.99000
O122        O  0.56694957  0.90870491  0.01830232    -0.62100
O123        O  0.65327520  0.04896167  0.96646624    -0.56900
O124        O  0.58749783  0.94476812  0.96656446    -0.93600
O125        O  0.61548273  0.99084063  0.94524518    -0.92000
O126        O  0.66326887  0.03155061  0.05296983    -0.92400
O127        O  0.63360689  0.97232074  0.07530996    -0.91200
C128        C  0.61141448  0.95911514  0.94819484     1.17900
H129        H  0.61408005  0.07967265  0.02371900     0.33800
H130        H  0.54744166  0.96878086  0.07508149     0.44700
H131        H  0.53468337  0.99335425  0.94048327     0.38200
H132        H  0.46075716  0.07212720  0.02925618     0.34700
H133        H  0.61897628  0.01679044  0.13181992     0.26500
H134        H  0.41651651  0.01497320  0.09386632     0.32400
H135        H  0.39942763  0.03026931  0.96915764     0.38300
H136        H  0.67433319  0.03694263  0.07478111     0.32800
H137        H  0.65747410  0.05948031  0.94475017     0.31600
H138        H  0.60344783  0.05239762  0.90149676     0.33300
H139        H  0.48810260  0.02155927  0.90287883     0.32300
H140        H  0.62146873  0.95457214  0.06191081     0.36300
H141        H  0.56387214  0.89434301  0.99842608     0.29000
H142        H  0.51509213  0.16215188  0.03930286     0.33300
H143        H  0.45223729  0.09933450  0.96463654     0.36100
H144        H  0.65867156  0.06697675  0.98270895     0.28700
H145        H  0.59388499  0.91265839  0.02031175     0.41600
H146        H  0.47385080  0.99567147  0.13269439     0.31600
H147        H  0.57579062  0.01928324  0.13140479     0.39300
H148        H  0.50421644  0.05719725  0.91058612     0.31100
H149        H  0.41403874  0.03863822  0.06322324     0.31200
H150        H  0.48342023  0.14444596  0.01892395     0.31400
C151        C  0.20342590  0.19870328  0.23721846     0.80600
N152        N  0.18714154  0.22330034  0.21928669    -0.77700
C153        C  0.20524528  0.23802238  0.19401916     0.83100
N154        N  0.23995989  0.22774092  0.18640726    -0.77600
C155        C  0.25662736  0.20326961  0.20407333     0.83200
N156        N  0.23794891  0.18839944  0.22898434    -0.79300
C157        C  0.33658673  0.82860471  0.76437985     0.80600
N158        N  0.30947860  0.84783525  0.75115736    -0.77700
C159        C  0.28953262  0.83674226  0.72491033     0.83100
N160        N  0.29704597  0.80635556  0.71142416    -0.77600
C161        C  0.32364014  0.78648352  0.72465574     0.83200
N162        N  0.34363702  0.79785894  0.75105429    -0.79300
Zr163      Zr  0.00648593  0.03774407  0.45745936     2.17500
O164        O  0.02215393  0.02571626  0.40005990    -0.50900
O165        O  0.95174543  0.06955553  0.44172020    -0.74100
O166        O  0.97283684  0.99000374  0.43481365    -0.80900
O167        O  0.07751887  0.10846941  0.45673785    -0.82600
O168        O  0.95732740  0.95614186  0.47730488    -0.78300
O169        O  0.04178320  0.07574096  0.42336919    -0.89900
O170        O  0.92794580  0.09477851  0.48715092    -0.75900
O171        O  0.96204324  0.02806634  0.49943473    -0.85400
O172        O  0.00668563  0.08661119  0.49144083    -0.85100
O173        O  0.02779480  0.98828811  0.48507647    -0.71800
O174        O  0.06844602  0.04219146  0.47849133    -0.83900
Zr175      Zr  0.04431290  0.03283415  0.58378482     2.26400
Zr176      Zr  0.98340529  0.97939234  0.52780649     2.06300
Zr177      Zr  0.06785621  0.09088705  0.51319302     2.10000
Zr178      Zr  0.96326132  0.07651100  0.53418263     1.78800
O179        O  0.13028571  0.10909192  0.49995489    -0.92700
O180        O  0.89968521  0.05990757  0.54506506    -0.40600
O181        O  0.02430388  0.08275409  0.55649879    -0.77200
O182        O  0.98237366  0.02763992  0.56321497    -0.95900
O183        O  0.04444151  0.98393189  0.54994966    -0.89200
O184        O  0.08873893  0.04226836  0.54179442    -0.92000
C185        C  0.92851361  0.08904335  0.45604089     1.01700
C186        C  0.06557722  0.09914329  0.42827885     1.14700
C187        C  0.95750366  0.96370908  0.44658628     1.05400
O188        O  0.91804950  0.97145345  0.53944774    -0.94200
O189        O  0.97872792  0.95802952  0.58381224    -0.89900
O190        O  0.01468104  0.99048367  0.61714559    -0.83100
C191        C  0.99214567  0.96604758  0.61219682     1.12100
O192        O  0.11524945  0.97572333  0.45564374    -0.96200
Zr193      Zr  0.08864449  0.99365397  0.50804359     1.88900
O194        O  0.09433879  0.99774851  0.60196456    -0.72800
O195        O  0.99823445  0.92012434  0.52262630    -0.52100
O196        O  0.08726520  0.93315529  0.49911850    -0.96700
O197        O  0.15165536  0.01390357  0.50042982    -0.54000
O198        O  0.12009934  0.97296566  0.55725819    -0.73300
C199        C  0.11771955  0.97801846  0.58856870     0.99000
O200        O  0.02536957  0.05612927  0.63681096    -0.62100
O201        O  0.04663522  0.14853500  0.51889548    -0.56900
O202        O  0.08702298  0.07461603  0.60546122    -0.93600
O203        O  0.10086777  0.10857311  0.56245394    -0.92000
O204        O  0.96263365  0.13730750  0.54005074    -0.92400
O205        O  0.94089061  0.09405336  0.58819975    -0.91200
C206        C  0.10392952  0.09964123  0.59272799     1.17900
H207        H  0.00052592  0.10630393  0.47887853     0.33800
H208        H  0.96541110  0.02415758  0.58119744     0.44700
H209        H  0.11315181  0.04554910  0.55105107     0.38200
H210        H  0.02817535  0.96945992  0.46998281     0.34700
H211        H  0.88496562  0.08054192  0.54182902     0.26500
H212        H  0.01840960  0.91637393  0.53876113     0.32400
H213        H  0.09898648  0.92340361  0.51896442     0.38300
H214        H  0.96500917  0.14595059  0.51732092     0.32800
H215        H  0.06947638  0.16184674  0.52216260     0.31600
H216        H  0.12953883  0.13385602  0.50146272     0.33300
H217        H  0.16334522  0.01319471  0.52255742     0.32300
H218        H  0.96356631  0.09861569  0.60126979     0.36300
H219        H  0.99828921  0.05268965  0.63765557     0.29000
H220        H  0.99843068  0.02500656  0.38777999     0.33300
H221        H  0.13728833  0.96227048  0.46147790     0.36100
H222        H  0.03773822  0.15483277  0.49664784     0.28700
H223        H  0.03560566  0.04081719  0.65364893     0.41600
H224        H  0.91582886  0.94770104  0.54598781     0.31600
H225        H  0.89271403  0.04525882  0.52620771     0.39300
H226        H  0.14894874  0.03808094  0.49569022     0.31100
H227        H  0.97662044  0.90818984  0.53169859     0.31200
H228        H  0.03138805  0.00236819  0.39978803     0.31400
C229        C  0.70685256  0.23843765  0.28364812     0.80600
N230        N  0.73114657  0.21926942  0.30072581    -0.77700
C231        C  0.74415618  0.22892571  0.33066258     0.83100
N232        N  0.73321949  0.25882727  0.34340603    -0.77600
C233        C  0.70948882  0.27886709  0.32651426     0.83200
N234        N  0.69604122  0.26842326  0.29666135    -0.79300
C235        C  0.22390471  0.32332822  0.75440108     0.80600
N236        N  0.24776241  0.34464550  0.73959441    -0.77700
C237        C  0.26211832  0.33741979  0.70961642     0.83100
N238        N  0.25299665  0.30806267  0.69456363    -0.77600
C239        C  0.22983589  0.28626577  0.70949994     0.83200
N240        N  0.21497586  0.29402439  0.73924779    -0.79300
C241        C  0.36789491  0.72482778  0.25039100     0.80600
N242        N  0.33744126  0.70700495  0.24135388    -0.77700
C243        C  0.31789290  0.71563499  0.21409370     0.83100
N244        N  0.32899795  0.74198247  0.19575813    -0.77600
C245        C  0.35948869  0.75979432  0.20442366     0.83200
N246        N  0.37926870  0.75079023  0.23147523    -0.79300
Zr247      Zr  0.51485620  0.54343612  0.58959035     2.17500
O248        O  0.52765320  0.56492819  0.64502983    -0.50900
O249        O  0.46632339  0.50554849  0.60715821    -0.74100
O250        O  0.46999923  0.58531371  0.60761464    -0.80900
O251        O  0.59394928  0.48077416  0.59547747    -0.82600
O252        O  0.44914563  0.61307727  0.56239408    -0.78300
O253        O  0.55294361  0.51010847  0.62629243    -0.89900
O254        O  0.44583122  0.47746250  0.56172510    -0.75900
O255        O  0.47062837  0.54461888  0.54590035    -0.85400
O256        O  0.52375647  0.49345238  0.55804262    -0.85100
O257        O  0.52874942  0.59366453  0.55974245    -0.71800
O258        O  0.57769418  0.54515616  0.57092821    -0.83900
Zr259      Zr  0.55610385  0.54629951  0.46384302     2.26400
Zr260      Zr  0.48499370  0.59371325  0.51522278     2.06300
Zr261      Zr  0.58575710  0.49563855  0.53813664     2.10000
Zr262      Zr  0.48034990  0.49522059  0.51397214     1.78800
O263        O  0.65227918  0.50190564  0.54538063    -0.92700
O264        O  0.41591825  0.50244030  0.49766957    -0.40600
O265        O  0.54206641  0.49628441  0.49356128    -0.77200
O266        O  0.49304931  0.54425114  0.48208365    -0.95900
O267        O  0.54714594  0.59590745  0.49570550    -0.89200
O268        O  0.60053745  0.54461334  0.50747707    -0.92000
C269        C  0.44525911  0.48406440  0.59274243     1.01700
C270        C  0.57972524  0.48922042  0.62318009     1.14700
C271        C  0.44929809  0.60712324  0.59350397     1.05400
O272        O  0.42113807  0.59024941  0.49624861    -0.94200
O273        O  0.48350674  0.61509445  0.45960770    -0.89900
O274        O  0.52286288  0.58455558  0.42775748    -0.83100
C275        C  0.49861751  0.60764571  0.43196485     1.12100
O276        O  0.60121592  0.62343962  0.59178914    -0.96200
Zr277      Zr  0.59094391  0.59419338  0.53947109     1.88900
O278        O  0.60905694  0.57954976  0.44825241    -0.72800
O279        O  0.48676078  0.65474888  0.51634781    -0.52100
O280        O  0.58660723  0.65477390  0.53370171    -0.96700
O281        O  0.65409376  0.58522149  0.55871879    -0.54000
O282        O  0.62830030  0.61013909  0.49275996    -0.73300
C283        C  0.63003444  0.60122694  0.46236964     0.99000
O284        O  0.54562080  0.53077196  0.40628498    -0.62100
O285        O  0.58855517  0.43560940  0.54838211    -0.56900
O286        O  0.59110071  0.49781480  0.44466734    -0.93600
O287        O  0.60759228  0.46656994  0.48902573    -0.92000
O288        O  0.49359563  0.43540507  0.51413100    -0.92400
O289        O  0.46194534  0.46621395  0.46339506    -0.91200
C290        C  0.60610117  0.47207522  0.45789972     1.17900
H291        H  0.52030397  0.47371191  0.57129172     0.33800
H292        H  0.47657525  0.54475063  0.46327351     0.44700
H293        H  0.62545629  0.54302324  0.49923385     0.38200
H294        H  0.52518106  0.61308871  0.57370008     0.34700
H295        H  0.40420673  0.51367908  0.51679584     0.26500
H296        H  0.46060663  0.66179337  0.51799696     0.32400
H297        H  0.56750995  0.65824967  0.51649229     0.38300
H298        H  0.47534019  0.42557830  0.52938288     0.32800
H299        H  0.57319602  0.42514446  0.53084628     0.31600
H300        H  0.66332775  0.48606113  0.52933889     0.33300
H301        H  0.66753191  0.57638169  0.53930330     0.32300
H302        H  0.47274583  0.47976609  0.44548408     0.36300
H303        H  0.57015055  0.53049617  0.39555165     0.29000
H304        H  0.50463026  0.56158919  0.65770534     0.33300
H305        H  0.62365502  0.63723973  0.58858899     0.36100
H306        H  0.61422387  0.42901296  0.54306647     0.28700
H307        H  0.53706008  0.50721228  0.40618528     0.41600
H308        H  0.41347638  0.61384615  0.49329090     0.31600
H309        H  0.41630605  0.51976222  0.48031031     0.39300
H310        H  0.65239996  0.56597468  0.57390298     0.31100
H311        H  0.49778500  0.66070150  0.53802893     0.31200
H312        H  0.53011033  0.58950915  0.64267580     0.31400
C313        C  0.39859826  0.69527195  0.33491206    -0.11500
C314        C  0.43565033  0.68745519  0.32872237     0.11100
C315        C  0.45109180  0.69380143  0.29739336    -0.03300
C316        C  0.42828225  0.70757343  0.27282829    -0.06000
C317        C  0.39068134  0.71389305  0.27854217    -0.16800
C318        C  0.37565328  0.70855447  0.31027284     0.02100
C319        C  0.45560373  0.66817386  0.35409437     0.12100
C320        C  0.49098157  0.68491582  0.28967706     0.62700
H321        H  0.43919545  0.71199280  0.24839821     0.12100
C322        C  0.33573212  0.71686318  0.31822673     0.54800
H323        H  0.38737750  0.68949905  0.35895233     0.07900
C324        C  0.47149717  0.68332452  0.38243960    -0.05900
C325        C  0.48722422  0.66251352  0.40654824    -0.06600
C326        C  0.48661768  0.62743082  0.40328622    -0.16200
C327        C  0.47039836  0.61242332  0.37490854    -0.01800
C328        C  0.45516532  0.63325902  0.35072274    -0.09400
C329        C  0.47061895  0.72104356  0.38767697     0.64900
H330        H  0.49913333  0.67342254  0.42875174     0.10400
C331        C  0.46827226  0.57472795  0.37028646     0.63300
H332        H  0.44210808  0.62244889  0.32898780     0.07700
F333        F  0.32886811  0.71493998  0.35175329    -0.19700
F334        F  0.31237980  0.69457128  0.30222103    -0.16000
F335        F  0.32772966  0.74912701  0.30823432    -0.19500
F336        F  0.49592191  0.65065978  0.29164525    -0.22800
F337        F  0.51447526  0.70054496  0.31195905    -0.24300
F338        F  0.50089650  0.69482823  0.25827329    -0.18300
F339        F  0.44582771  0.56576834  0.34386719    -0.20800
F340        F  0.45408390  0.55983846  0.39822586    -0.21900
F341        F  0.50322239  0.56252520  0.36415438    -0.19100
F342        F  0.48893274  0.73057525  0.41633975    -0.19200
F343        F  0.43443673  0.73181616  0.38998732    -0.23100
F344        F  0.48731489  0.73697686  0.36152322    -0.24700
C345        C  0.30829465  0.41656098  0.67736317    -0.11500
C346        C  0.33802085  0.40263343  0.66009646     0.11100
C347        C  0.34287855  0.36746332  0.65922623    -0.03300
C348        C  0.31743908  0.34725183  0.67591401    -0.06000
C349        C  0.28760199  0.36104318  0.69331340    -0.16800
C350        C  0.28246799  0.39636487  0.69375282     0.02100
C351        C  0.36408063  0.42559025  0.64356042     0.12100
C352        C  0.37481473  0.35132224  0.64085144     0.62700
H353        H  0.32098827  0.32031154  0.67587432     0.12100
C354        C  0.24953425  0.41288994  0.71037784     0.54800
H355        H  0.30560567  0.44358112  0.67792959     0.07900
C356        C  0.35578378  0.44040033  0.61280320    -0.05900
C357        C  0.38284285  0.46025950  0.59782137    -0.06600
C358        C  0.41764189  0.46566012  0.61247825    -0.16200
C359        C  0.42549480  0.45154764  0.64381433    -0.01800
C360        C  0.39812578  0.43201165  0.65898407    -0.09400
C361        C  0.31877794  0.43501689  0.59565465     0.64900
H362        H  0.37709557  0.47164332  0.57415984     0.10400
C363        C  0.46275421  0.45584441  0.66075157     0.63300
H364        H  0.40327645  0.42091210  0.68288325     0.07700
F365        F  0.24688469  0.44652292  0.70258410    -0.19700
F366        F  0.25297083  0.41057435  0.74428843    -0.16000
F367        F  0.21712133  0.39747598  0.70015242    -0.19500
F368        F  0.40784218  0.35983197  0.65602198    -0.22800
F369        F  0.37527911  0.36215341  0.60852622    -0.24300
F370        F  0.37208089  0.31671254  0.64037546    -0.18300
F371        F  0.46775578  0.48902526  0.66974384    -0.20800
F372        F  0.49071725  0.44598235  0.63966850    -0.21900
F373        F  0.46546531  0.43670561  0.68903007    -0.19100
F374        F  0.31802653  0.44915358  0.56454010    -0.19200
F375        F  0.29098309  0.44956399  0.61408927    -0.23100
F376        F  0.31171101  0.40113882  0.59208463    -0.24700
C377        C  0.61441666  0.39556261  0.40259456    -0.11500
C378        C  0.65226833  0.39566472  0.39540510     0.11100
C379        C  0.67479643  0.42233329  0.40729044    -0.03300
C380        C  0.65855310  0.44757103  0.42696461    -0.06000
C381        C  0.62116027  0.44616416  0.43565152    -0.16800
C382        C  0.59875601  0.41959113  0.42378841     0.02100
C383        C  0.66772119  0.36585642  0.37795068     0.12100
C384        C  0.71583056  0.42374339  0.39986052     0.62700
H385        H  0.67507037  0.46822083  0.43636679     0.12100
C386        C  0.55882236  0.41605263  0.43450321     0.54800
H387        H  0.59753060  0.37543225  0.39263530     0.07900
C388        C  0.67086324  0.33448115  0.39390978    -0.05900
C389        C  0.68451127  0.30696102  0.37594089    -0.06600
C390        C  0.69540311  0.30970517  0.34286149    -0.16200
C391        C  0.69376156  0.34138596  0.32730150    -0.01800
C392        C  0.67893384  0.36881718  0.34496238    -0.09400
C393        C  0.66011672  0.32999059  0.42988376     0.64900
H394        H  0.68633125  0.28268550  0.38759951     0.10400
C395        C  0.70887977  0.34666533  0.29285962     0.63300
H396        H  0.67587201  0.39285686  0.33306291     0.07700
F397        F  0.54280353  0.38694373  0.42230598    -0.19700
F398        F  0.53852005  0.44300351  0.42331996    -0.16000
F399        F  0.55708007  0.41505458  0.46855269    -0.19500
F400        F  0.72106068  0.42807443  0.36640442    -0.22800
F401        F  0.73264842  0.39431147  0.40959533    -0.24300
F402        F  0.73307420  0.45004077  0.41627840    -0.18300
F403        F  0.68571627  0.33182848  0.26981790    -0.20800
F404        F  0.74377123  0.33275774  0.29035261    -0.21900
F405        F  0.71181638  0.38038404  0.28547436    -0.19100
F406        F  0.66932810  0.29849769  0.44137087    -0.19200
F407        F  0.62242064  0.33380967  0.43351800    -0.23100
F408        F  0.67823469  0.35344053  0.44939545    -0.24700
C409        C  0.14218256  0.15579160  0.66077543    -0.11500
C410        C  0.17207805  0.16997595  0.64416025     0.11100
C411        C  0.18347944  0.15694205  0.61346649    -0.03300
C412        C  0.16140835  0.13226995  0.59836519    -0.06000
C413        C  0.12915574  0.12008186  0.61349220    -0.16800
C414        C  0.12030931  0.13073875  0.64602509     0.02100
C415        C  0.18879857  0.20028112  0.65860664     0.12100
C416        C  0.21875655  0.16897344  0.59704685     0.62700
H417        H  0.16865958  0.12288980  0.57409422     0.12100
C418        C  0.08726717  0.11721110  0.66463773     0.54800
H419        H  0.13512607  0.16581949  0.68484911     0.07900
C420        C  0.17433328  0.23241894  0.65154586    -0.05900
C421        C  0.18936922  0.26014168  0.66827518    -0.06600
C422        C  0.21746746  0.25627225  0.69178722    -0.16200
C423        C  0.23228531  0.22432355  0.69844703    -0.01800
C424        C  0.21750815  0.19650854  0.68159248    -0.09400
C425        C  0.14244672  0.23727597  0.62732184     0.64900
H426        H  0.17867636  0.28505336  0.66381067     0.10400
C427        C  0.26350224  0.21994340  0.72313746     0.63300
H428        H  0.22772039  0.17154403  0.68658276     0.07700
F429        F  0.08268991  0.13309382  0.69485083    -0.19700
F430        F  0.09225358  0.08344326  0.67053989    -0.16000
F431        F  0.05533916  0.12199370  0.64638420    -0.19500
F432        F  0.24869160  0.16146168  0.61697924    -0.22800
F433        F  0.21789659  0.20319411  0.59226902    -0.24300
F434        F  0.22398761  0.15375585  0.56662109    -0.18300
F435        F  0.25211459  0.23031730  0.75408862    -0.20800
F436        F  0.29354744  0.23898113  0.71367323    -0.21900
F437        F  0.27468355  0.18686209  0.72522334    -0.19100
F438        F  0.13327499  0.27074237  0.62398307    -0.19200
F439        F  0.11151942  0.22039698  0.63823076    -0.23100
F440        F  0.15166846  0.22514617  0.59644082    -0.24700
C441        C  0.79457795  0.15328975  0.36661151    -0.11500
C442        C  0.82135949  0.16924933  0.38614020     0.11100
C443        C  0.82270300  0.20461864  0.38781880    -0.03300
C444        C  0.79675224  0.22300824  0.36947387    -0.06000
C445        C  0.76996403  0.20717380  0.34945604    -0.16800
C446        C  0.76836634  0.17150206  0.34842773     0.02100
C447        C  0.84800156  0.14790876  0.40409222     0.12100
C448        C  0.85185220  0.22284373  0.40829996     0.62700
H449        H  0.79781360  0.25011717  0.37003887     0.12100
C450        C  0.73919183  0.15223431  0.32886441     0.54800
H451        H  0.79461597  0.12615741  0.36561972     0.07900
C452        C  0.83903999  0.13283971  0.43447002    -0.05900
C453        C  0.86583286  0.11295333  0.45008150    -0.06600
C454        C  0.90067823  0.10707915  0.43586671    -0.16200
C455        C  0.90892522  0.12120974  0.40466110    -0.01800
C456        C  0.88226483  0.14161021  0.38941990    -0.09400
C457        C  0.80125302  0.13754872  0.45008271     0.64900
H458        H  0.85967913  0.10167845  0.47366140     0.10400
C459        C  0.94568771  0.11541383  0.38760170     0.63300
H460        H  0.88781495  0.15282829  0.36569433     0.07700
F461        F  0.73852824  0.11864515  0.33718976    -0.19700
F462        F  0.74667158  0.15425434  0.29550517    -0.16000
F463        F  0.70444921  0.16513201  0.33517084    -0.19500
F464        F  0.88634512  0.21729465  0.39485130    -0.22800
F465        F  0.85169798  0.21141357  0.44041613    -0.24300
F466        F  0.84571169  0.25707508  0.40923639    -0.18300
F467        F  0.94874335  0.08202162  0.37867682    -0.20800
F468        F  0.97451041  0.12415109  0.40851332    -0.21900
F469        F  0.94900691  0.13429970  0.35925881    -0.19100
F470        F  0.79936955  0.12308783  0.48098003    -0.19200
F471        F  0.77449084  0.12283977  0.43025976    -0.23100
F472        F  0.79341320  0.17126291  0.45363214    -0.24700
C473        C  0.20081477  0.87389832  0.69155619    -0.11500
C474        C  0.21484353  0.89924987  0.67133736     0.11100
C475        C  0.25318192  0.90648835  0.67168331    -0.03300
C476        C  0.27682549  0.88574350  0.69006708    -0.06000
C477        C  0.26294385  0.85909903  0.70864119    -0.16800
C478        C  0.22444987  0.85380770  0.71066123     0.02100
C479        C  0.18875063  0.91833663  0.65039223     0.12100
C480        C  0.26884818  0.93605800  0.65287610     0.62700
H481        H  0.30641595  0.88988720  0.68980899     0.12100
C482        C  0.20876549  0.82757771  0.73356961     0.54800
H483        H  0.17122207  0.86983281  0.69200421     0.07900
C484        C  0.17634566  0.90608198  0.61940971    -0.05900
C485        C  0.15359890  0.92664193  0.60000958    -0.06600
C486        C  0.14256235  0.95868224  0.61074007    -0.16200
C487        C  0.15453992  0.97056625  0.64233312    -0.01800
C488        C  0.17719663  0.94979315  0.66163795    -0.09400
C489        C  0.18703079  0.87145362  0.60692471     0.64900
H490        H  0.14375704  0.91750515  0.57631487     0.10400
C491        C  0.14455658  0.00509178  0.65575287     0.63300
H492        H  0.18654135  0.95803992  0.68580861     0.07700
F493        F  0.17052684  0.82810967  0.73390901    -0.19700
F494        F  0.22131365  0.83359546  0.76539771    -0.16000
F495        F  0.22003423  0.79603296  0.72358701    -0.19500
F496        F  0.25511740  0.96562252  0.66587652    -0.22800
F497        F  0.25908247  0.93377112  0.61989447    -0.24300
F498        F  0.30701280  0.93740148  0.65495065    -0.18300
F499        F  0.10722380  0.00645821  0.66271415    -0.20800
F500        F  0.15344618  0.02936211  0.63290693    -0.21900
F501        F  0.16346316  0.01260303  0.68468720    -0.19100
F502        F  0.17259340  0.86483829  0.57581794    -0.19200
F503        F  0.17375125  0.84735012  0.62813303    -0.23100
F504        F  0.22505904  0.86887736  0.60515729    -0.24700
C505        C  0.36644137  0.65209071  0.63112403    -0.11500
C506        C  0.38433923  0.67441880  0.65284697     0.11100
C507        C  0.42315815  0.67236275  0.65723357    -0.03300
C508        C  0.44314159  0.64910884  0.63813423    -0.06000
C509        C  0.42557819  0.62823803  0.61486795    -0.16800
C510        C  0.38653448  0.62880345  0.61198459     0.02100
C511        C  0.36255005  0.70115225  0.66951986     0.12100
C512        C  0.44342681  0.69536139  0.68135965     0.62700
H513        H  0.47294285  0.64778188  0.64042709     0.12100
C514        C  0.36630313  0.60446669  0.58932239     0.54800
H515        H  0.33667192  0.65363032  0.62872122     0.07900
C516        C  0.35456812  0.73176090  0.65357294    -0.05900
C517        C  0.34065972  0.75852478  0.67248332    -0.06600
C518        C  0.33477292  0.75568257  0.70659683    -0.16200
C519        C  0.34010028  0.72427385  0.72201167    -0.01800
C520        C  0.35361444  0.69729975  0.70293852    -0.09400
C521        C  0.36130990  0.73630154  0.61687801     0.64900
H522        H  0.33551072  0.78244721  0.66089525     0.10400
C523        C  0.33155121  0.71914956  0.75824590     0.63300
H524        H  0.35922347  0.67338496  0.71436796     0.07700
F525        F  0.37446402  0.61141176  0.55680951    -0.19700
F526        F  0.32836677  0.60646610  0.59313262    -0.16000
F527        F  0.37706432  0.57203197  0.59637281    -0.19500
F528        F  0.43142420  0.68948788  0.71313263    -0.22800
F529        F  0.43676486  0.72847227  0.67349674    -0.24300
F530        F  0.48123845  0.69027710  0.68075044    -0.18300
F531        F  0.33461636  0.68582360  0.76709865    -0.20800
F532        F  0.29581398  0.72942145  0.76477390    -0.21900
F533        F  0.35596965  0.73743615  0.77756737    -0.19100
F534        F  0.35410863  0.76875834  0.60688156    -0.19200
F535        F  0.33842081  0.71498444  0.59910575    -0.23100
F536        F  0.39770007  0.72916218  0.60937784    -0.24700
C537        C  0.17766251  0.15729402  0.31883440    -0.11500
C538        C  0.13916282  0.15551417  0.31556139     0.11100
C539        C  0.12170270  0.16839061  0.28711712    -0.03300
C540        C  0.14390385  0.18158651  0.26197585    -0.06000
C541        C  0.18272782  0.18287808  0.26469981    -0.16800
C542        C  0.20002343  0.17074657  0.29389932     0.02100
C543        C  0.11797305  0.14076465  0.34304028     0.12100
C544        C  0.07982875  0.16866929  0.28363870     0.62700
H545        H  0.13089198  0.19112064  0.23984108     0.12100
C546        C  0.24159805  0.17240853  0.29943149     0.54800
H547        H  0.19006637  0.14771435  0.34124777     0.07900
C548        C  0.11317395  0.10574394  0.34597268    -0.05900
C549        C  0.09468705  0.09343417  0.37377045    -0.06600
C550        C  0.08192047  0.11489711  0.39884512    -0.16200
C551        C  0.08612006  0.15004774  0.39555037    -0.01800
C552        C  0.10438576  0.16236329  0.36757160    -0.09400
C553        C  0.12848028  0.08145655  0.32039727     0.64900
H554        H  0.09125349  0.06666998  0.37678059     0.10400
C555        C  0.07093103  0.17450500  0.42096310     0.63300
H556        H  0.10882489  0.18904105  0.36482290     0.07700
F557        F  0.25911020  0.15033166  0.27821855    -0.19700
F558        F  0.25136447  0.16376766  0.33133682    -0.16000
F559        F  0.25425029  0.20463631  0.29408412    -0.19500
F560        F  0.06456108  0.18753983  0.30883176    -0.22800
F561        F  0.06603278  0.13644527  0.28519315    -0.24300
F562        F  0.06856008  0.18232259  0.25394095    -0.18300
F563        F  0.09140688  0.17272531  0.44978622    -0.20800
F564        F  0.03441617  0.16693458  0.42755429    -0.21900
F565        F  0.07230955  0.20722723  0.40992055    -0.19100
F566        F  0.11971091  0.04855700  0.32762350    -0.19200
F567        F  0.16652812  0.08416553  0.31933530    -0.23100
F568        F  0.11418056  0.08849371  0.28955325    -0.24700
C569        C  0.39731147  0.84055883  0.16867769    -0.11500
C570        C  0.40092071  0.83118057  0.13542453     0.11100
C571        C  0.39068625  0.79862058  0.12491815    -0.03300
C572        C  0.37656222  0.77641254  0.14837109    -0.06000
C573        C  0.37347155  0.78551481  0.18178207    -0.16800
C574        C  0.38348828  0.81823368  0.19225924     0.02100
C575        C  0.41925745  0.85500149  0.11313412     0.12100
C576        C  0.39566181  0.78708510  0.08939139     0.62700
H577        H  0.36886092  0.75120956  0.14096126     0.12100
C578        C  0.37871987  0.82989819  0.22774979     0.54800
H579        H  0.40610780  0.86547598  0.17606570     0.07900
C580        C  0.40043253  0.88239836  0.09890501    -0.05900
C581        C  0.42096375  0.90552462  0.08059916    -0.06600
C582        C  0.45936568  0.90232561  0.07671697    -0.16200
C583        C  0.47799461  0.87455237  0.09057069    -0.01800
C584        C  0.45740200  0.85131988  0.10870132    -0.09400
C585        C  0.35921141  0.88774121  0.10370740     0.64900
H586        H  0.40734093  0.92709433  0.06997154     0.10400
C587        C  0.51939646  0.86989493  0.08727475     0.63300
H588        H  0.47104132  0.83029654  0.12031577     0.07700
F589        F  0.38603808  0.86379456  0.23141669    -0.19700
F590        F  0.40264314  0.81271255  0.24821589    -0.16000
F591        F  0.34272804  0.82428091  0.23763510    -0.19500
F592        F  0.43278529  0.78685915  0.08158312    -0.22800
F593        F  0.37732502  0.80844241  0.06823914    -0.24300
F594        F  0.38191008  0.75508013  0.08419475    -0.18300
F595        F  0.53217501  0.84331497  0.10588919    -0.20800
F596        F  0.53776152  0.89847650  0.09783221    -0.21900
F597        F  0.52779156  0.86338935  0.05464784    -0.19100
F598        F  0.34667817  0.91589573  0.08732004    -0.19200
F599        F  0.35155739  0.89189665  0.13686041    -0.23100
F600        F  0.33976346  0.86041434  0.09171751    -0.24700
C601        C  0.64171686  0.20840771  0.21493294    -0.11500
C602        C  0.66555498  0.18751600  0.19711336     0.11100
C603        C  0.70347704  0.18629855  0.20547023    -0.03300
C604        C  0.71603031  0.20540271  0.23257615    -0.06000
C605        C  0.69185410  0.22489865  0.25194313    -0.16800
C606        C  0.65392187  0.22672045  0.24277634     0.02100
C607        C  0.64946720  0.16595828  0.17079249     0.12100
C608        C  0.73025004  0.16407294  0.18651931     0.62700
H609        H  0.74489631  0.20423832  0.23966422     0.12100
C610        C  0.62584729  0.24618462  0.26294574     0.54800
H611        H  0.61292775  0.20907498  0.20751641     0.07900
C612        C  0.63275720  0.13486733  0.17819306    -0.05900
C613        C  0.61855440  0.11534209  0.15211883    -0.06600
C614        C  0.61923085  0.12648733  0.11934730    -0.16200
C615        C  0.63516098  0.15803883  0.11198775    -0.01800
C616        C  0.65025497  0.17725838  0.13808907    -0.09400
C617        C  0.62869664  0.12290729  0.21355231     0.64900
H618        H  0.60567423  0.09143502  0.15725178     0.10400
C619        C  0.63715755  0.17095712  0.07684898     0.63300
H620        H  0.66272429  0.20140261  0.13327226     0.07700
F621        F  0.59017300  0.24149733  0.25122767    -0.19700
F622        F  0.63365473  0.28002306  0.26153310    -0.16000
F623        F  0.62679930  0.23573167  0.29541256    -0.19500
F624        F  0.73007529  0.17260028  0.15352470    -0.22800
F625        F  0.72002316  0.13084861  0.18937257    -0.24300
F626        F  0.76610588  0.16730578  0.19822558    -0.18300
F627        F  0.60197617  0.17710579  0.06491135    -0.20800
F628        F  0.65427002  0.14747198  0.05685635    -0.21900
F629        F  0.65703824  0.20054271  0.07503219    -0.19100
F630        F  0.61421711  0.09082456  0.21490139    -0.19200
F631        F  0.60514710  0.14411514  0.23043730    -0.23100
F632        F  0.66259217  0.12265190  0.22941148    -0.24700
C633        C  0.39526754  0.88704617  0.81753004    -0.11500
C634        C  0.39916784  0.86837197  0.84644400     0.11100
C635        C  0.38356251  0.83588493  0.84816633    -0.03300
C636        C  0.36437120  0.82310026  0.82036652    -0.06000
C637        C  0.35968094  0.84224295  0.79166805    -0.16800
C638        C  0.37627105  0.87442246  0.78981268     0.02100
C639        C  0.41843728  0.88474728  0.87473779     0.12100
C640        C  0.38614181  0.81543419  0.87954335     0.62700
H641        H  0.35161190  0.79856721  0.82128911     0.12100
C642        C  0.37499093  0.89516253  0.75849297     0.54800
H643        H  0.40709219  0.91198925  0.81700994     0.07900
C644        C  0.45740745  0.88803202  0.87593040    -0.05900
C645        C  0.47337318  0.90821813  0.90083055    -0.06600
C646        C  0.45157369  0.92567421  0.92376466    -0.16200
C647        C  0.41273264  0.92091954  0.92361612    -0.01800
C648        C  0.39678801  0.90066147  0.89877614    -0.09400
C649        C  0.48190099  0.87115275  0.85041719     0.64900
H650        H  0.50303420  0.91186906  0.90159576     0.10400
C651        C  0.38818933  0.93691195  0.94957580     0.63300
H652        H  0.36702837  0.89807581  0.89715673     0.07700
F653        F  0.39927626  0.92196574  0.76004788    -0.19700
F654        F  0.33986487  0.90784594  0.75370922    -0.16000
F655        F  0.38474797  0.87552642  0.73163657    -0.19500
F656        F  0.36657360  0.83118556  0.90440103    -0.22800
F657        F  0.42260177  0.81228899  0.88935624    -0.24300
F658        F  0.37172285  0.78355649  0.87519210    -0.18300
F659        F  0.38611606  0.97102304  0.94448854    -0.20800
F660        F  0.40244011  0.93093874  0.98074475    -0.21900
F661        F  0.35262751  0.92408989  0.94840208    -0.19100
F662        F  0.51905161  0.87582249  0.85741667    -0.19200
F663        F  0.47487973  0.88425095  0.81954569    -0.23100
F664        F  0.47504386  0.83709360  0.84963591    -0.24700
C665        C  0.41975926  0.13336442  0.16844286    -0.11500
C666        C  0.39299200  0.15214557  0.15159666     0.11100
C667        C  0.39593186  0.15659685  0.11705648    -0.03300
C668        C  0.42445346  0.14015114  0.10014239    -0.06000
C669        C  0.44879169  0.11851694  0.11644017    -0.16800
C670        C  0.44730061  0.11560023  0.15125537     0.02100
C671        C  0.35999123  0.16403752  0.16981239     0.12100
C672        C  0.36792459  0.17719187  0.09789964     0.62700
H673        H  0.42641323  0.14223095  0.07356079     0.12100
C674        C  0.47381285  0.09317479  0.17003943     0.54800
H675        H  0.41733782  0.13091192  0.19494946     0.07900
C676        C  0.32975049  0.14239650  0.17584490    -0.05900
C677        C  0.29675040  0.15622885  0.18789551    -0.06600
C678        C  0.29337659  0.19064078  0.19429280    -0.16200
C679        C  0.32463669  0.21179042  0.19097646    -0.01800
C680        C  0.35766418  0.19796877  0.17872536    -0.09400
C681        C  0.33213363  0.10496673  0.16904350     0.64900
H682        H  0.27282514  0.14036555  0.19150433     0.10400
C683        C  0.32332381  0.24857591  0.20065027     0.63300
H684        H  0.38152742  0.21381046  0.17472672     0.07700
F685        F  0.47174375  0.09854829  0.20378111    -0.19700
F686        F  0.50977353  0.09940052  0.16036807    -0.16000
F687        F  0.46526282  0.05996758  0.16381182    -0.19500
F688        F  0.36831109  0.20993851  0.10920103    -0.22800
F689        F  0.33294120  0.16391156  0.10191660    -0.24300
F690        F  0.37552452  0.17753977  0.06444579    -0.18300
F691        F  0.35820976  0.26288473  0.20098823    -0.20800
F692        F  0.30865717  0.25201934  0.23195860    -0.21900
F693        F  0.30169230  0.26597570  0.17841337    -0.19100
F694        F  0.29952179  0.08865251  0.17663459    -0.19200
F695        F  0.35990609  0.09113146  0.18809116    -0.23100
F696        F  0.33961533  0.09918930  0.13605862    -0.24700
C697        C  0.62987855  0.27507131  0.91270275    -0.11500
C698        C  0.64193668  0.24330488  0.90257022     0.11100
C699        C  0.66823141  0.24009875  0.87700072    -0.03300
C700        C  0.68349873  0.26935942  0.86371042    -0.06000
C701        C  0.67187039  0.30108502  0.87427624    -0.16800
C702        C  0.64435905  0.30429711  0.89871323     0.02100
C703        C  0.62739494  0.21385681  0.92009415     0.12100
C704        C  0.67946425  0.20602898  0.86349350     0.62700
H705        H  0.70416656  0.26777362  0.84451203     0.12100
C706        C  0.63082718  0.33842804  0.91010583     0.54800
H707        H  0.60922287  0.27669545  0.93190011     0.07900
C708        C  0.64321789  0.20317333  0.95024990    -0.05900
C709        C  0.62887954  0.17441738  0.96526170    -0.06600
C710        C  0.59924796  0.15676728  0.95115042    -0.16200
C711        C  0.58243366  0.16818614  0.92172819    -0.01800
C712        C  0.59696600  0.19680291  0.90652079    -0.09400
C713        C  0.67466516  0.22241556  0.96664800     0.64900
H714        H  0.64068145  0.16540858  0.98816277     0.10400
C715        C  0.54899468  0.15047340  0.90699707     0.63300
H716        H  0.58487888  0.20604190  0.88383199     0.07700
F717        F  0.60590226  0.33594398  0.93577914    -0.19700
F718        F  0.61342933  0.35446377  0.88420442    -0.16000
F719        F  0.66040288  0.35766436  0.92089412    -0.19500
F720        F  0.64891184  0.19017435  0.84993009    -0.22800
F721        F  0.69377194  0.18645041  0.88847263    -0.24300
F722        F  0.70596070  0.20868048  0.83911507    -0.18300
F723        F  0.53537528  0.16693932  0.87955199    -0.20800
F724        F  0.52113778  0.14899937  0.93020134    -0.21900
F725        F  0.55848799  0.11829467  0.89752863    -0.19100
F726        F  0.68757541  0.20642241  0.99462078    -0.19200
F727        F  0.66249728  0.25392010  0.97586626    -0.23100
F728        F  0.70387744  0.22570601  0.94505616    -0.24700
C729        C  0.64360904  0.44435390  0.76961351    -0.11500
C730        C  0.63097538  0.42543955  0.74255850     0.11100
C731        C  0.63361471  0.39005201  0.74285580    -0.03300
C732        C  0.65005621  0.37473861  0.77027113    -0.06000
C733        C  0.66425390  0.39373989  0.79666812    -0.16800
C734        C  0.65981977  0.42896459  0.79715891     0.02100
C735        C  0.61765081  0.44344661  0.71313706     0.12100
C736        C  0.61997630  0.36865443  0.71405415     0.62700
H737        H  0.65339548  0.34777576  0.77070175     0.12100
C738        C  0.67087729  0.44999633  0.82698863     0.54800
H739        H  0.64132899  0.47138123  0.76864257     0.07900
C740        C  0.58154768  0.45649171  0.71077237    -0.05900
C741        C  0.57041420  0.47105142  0.68089959    -0.06600
C742        C  0.59445095  0.47350836  0.65375242    -0.16200
C743        C  0.63147499  0.46168871  0.65703573    -0.01800
C744        C  0.64226087  0.44707800  0.68696504    -0.09400
C745        C  0.55542193  0.45594144  0.73997067     0.64900
H746        H  0.54263203  0.48076415  0.67866771     0.10400
C747        C  0.65999937  0.46439175  0.62973264     0.63300
H748        H  0.67004265  0.43748201  0.69009549     0.07700
F749        F  0.65485525  0.43690959  0.85502731    -0.19700
F750        F  0.65931819  0.48288645  0.82397074    -0.16000
F751        F  0.70883828  0.45016015  0.83071174    -0.19500
F752        F  0.64016544  0.37570509  0.68609731    -0.22800
F753        F  0.58306099  0.37515850  0.70795220    -0.24300
F754        F  0.62359128  0.33475576  0.72032101    -0.18300
F755        F  0.66206841  0.49708931  0.61883739    -0.20800
F756        F  0.65049093  0.44330138  0.60382125    -0.21900
F757        F  0.69497279  0.45524881  0.64039643    -0.19100
F758        F  0.52034000  0.46670605  0.73142470    -0.19200
F759        F  0.56883989  0.47699216  0.76449998    -0.23100
F760        F  0.55246111  0.42383973  0.75227510    -0.24700
C761        C  0.25780576  0.64782526  0.17630503    -0.11500
C762        C  0.22496827  0.66570293  0.17150407     0.11100
C763        C  0.22097554  0.69824378  0.18494005    -0.03300
C764        C  0.25186959  0.71334118  0.20001032    -0.06000
C765        C  0.28549877  0.69618830  0.20317080    -0.16800
C766        C  0.28836902  0.66248480  0.19230039     0.02100
C767        C  0.19603332  0.65001858  0.15080166     0.12100
C768        C  0.18436345  0.71674377  0.18323917     0.62700
H769        H  0.25025934  0.73893181  0.20898259     0.12100
C770        C  0.32383122  0.64259108  0.19628882     0.54800
H771        H  0.25958194  0.62259102  0.16640951     0.07900
C772        C  0.19608903  0.65335218  0.11602477    -0.05900
C773        C  0.16970114  0.63548981  0.09746141    -0.06600
C774        C  0.14483018  0.61364159  0.11259573    -0.16200
C775        C  0.14418908  0.61092944  0.14739989    -0.01800
C776        C  0.16988001  0.62952198  0.16608829    -0.09400
C777        C  0.22561403  0.67345187  0.09836771     0.64900
H778        H  0.16973583  0.63684306  0.07075851     0.10400
C779        C  0.11701664  0.58811565  0.16463776     0.63300
H780        H  0.17072481  0.62722111  0.19271114     0.07700
F781        F  0.32078763  0.61070828  0.18280579    -0.19700
F782        F  0.33214366  0.63930634  0.22944920    -0.16000
F783        F  0.35255993  0.65885087  0.18069280    -0.19500
F784        F  0.15762677  0.69849618  0.19946864    -0.22800
F785        F  0.17346363  0.72094209  0.15079666    -0.24300
F786        F  0.18658913  0.74809465  0.19796961    -0.18300
F787        F  0.12730712  0.55512013  0.15999461    -0.20800
F788        F  0.08197192  0.59271386  0.15186344    -0.21900
F789        F  0.11570489  0.59459267  0.19823421    -0.19100
F790        F  0.21721732  0.67736409  0.06524168    -0.19200
F791        F  0.25907572  0.65697472  0.10084443    -0.23100
F792        F  0.22922653  0.70504594  0.11215874    -0.24700
C793        C  0.15375106  0.34888761  0.81898855    -0.11500
C794        C  0.17631695  0.36864978  0.83939998     0.11100
C795        C  0.21498940  0.36882085  0.83513449    -0.03300
C796        C  0.22965622  0.35111250  0.80828815    -0.06000
C797        C  0.20682658  0.33373466  0.78581549    -0.16800
C798        C  0.16822282  0.33149345  0.79175043     0.02100
C799        C  0.15829762  0.39064661  0.86371838     0.12100
C800        C  0.24038382  0.38836877  0.85826796     0.62700
H801        H  0.25911849  0.35191191  0.80375275     0.12100
C802        C  0.14195185  0.31264967  0.76883318     0.54800
H803        H  0.12432120  0.34865531  0.82374120     0.07900
C804        C  0.14332535  0.42198366  0.85455310    -0.05900
C805        C  0.12717733  0.44198107  0.87907038    -0.06600
C806        C  0.12467155  0.43105132  0.91178563    -0.16200
C807        C  0.13950443  0.39949863  0.92084020    -0.01800
C808        C  0.15615135  0.37974002  0.89634899    -0.09400
C809        C  0.14351918  0.43383280  0.81896585     0.64900
H810        H  0.11541409  0.46604747  0.87270959     0.10400
C811        C  0.13828891  0.38670763  0.95604475     0.63300
H812        H  0.16740439  0.35538403  0.90235608     0.07700
F813        F  0.14525947  0.32445647  0.73698023    -0.19700
F814        F  0.10541611  0.31653224  0.77815190    -0.16000
F815        F  0.14999733  0.27880541  0.76942409    -0.19500
F816        F  0.23810816  0.37535544  0.88971487    -0.22800
F817        F  0.23019439  0.42173650  0.85914898    -0.24300
F818        F  0.27691307  0.38670372  0.84840237    -0.18300
F819        F  0.10258218  0.37728607  0.96367635    -0.20800
F820        F  0.15000749  0.41140756  0.97781906    -0.21900
F821        F  0.16100650  0.35917582  0.96033948    -0.19100
F822        F  0.13036336  0.46625570  0.81613750    -0.19200
F823        F  0.12118157  0.41314323  0.79995749    -0.23100
F824        F  0.17902415  0.43314030  0.80654718    -0.24700
C825        C  0.15168224  0.31428577  0.16409096    -0.11500
C826        C  0.15723591  0.31155876  0.12993854     0.11100
C827        C  0.17789393  0.28451143  0.11697984    -0.03300
C828        C  0.19176730  0.26047670  0.13887471    -0.06000
C829        C  0.18671298  0.26326596  0.17312422    -0.16800
C830        C  0.16622101  0.29059150  0.18617009     0.02100
C831        C  0.14439572  0.33944389  0.10893799     0.12100
C832        C  0.18646953  0.28166681  0.08039455     0.62700
H833        H  0.20761417  0.23954751  0.12940046     0.12100
C834        C  0.16127002  0.29584735  0.22309276     0.54800
H835        H  0.13652844  0.33574898  0.17333778     0.07900
C836        C  0.10708590  0.34287410  0.09892453    -0.05900
C837        C  0.09679954  0.37166930  0.08145091    -0.06600
C838        C  0.12254947  0.39671442  0.07368028    -0.16200
C839        C  0.16028126  0.39236577  0.08231223    -0.01800
C840        C  0.17030912  0.36401294  0.10055271    -0.09400
C841        C  0.07828160  0.31638986  0.10662134     0.64900
H842        H  0.06816231  0.37529508  0.07445486     0.10400
C843        C  0.19010395  0.41694274  0.07204918     0.63300
H844        H  0.19860249  0.36096213  0.10887988     0.07700
F845        F  0.13918425  0.27082061  0.23577963    -0.19700
F846        F  0.14462066  0.32625180  0.23022832    -0.16000
F847        F  0.19535188  0.29546106  0.23872781    -0.19500
F848        F  0.20877385  0.30803050  0.07106071    -0.22800
F849        F  0.15417472  0.28237055  0.06207658    -0.24300
F850        F  0.20479682  0.25217332  0.07289907    -0.18300
F851        F  0.18808266  0.44568485  0.09117976    -0.20800
F852        F  0.18576650  0.42507604  0.03913787    -0.21900
F853        F  0.22511296  0.40349302  0.07589244    -0.19100
F854        F  0.04378591  0.32478980  0.09424672    -0.19200
F855        F  0.07513218  0.31262061  0.14035549    -0.23100
F856        F  0.08848015  0.28613792  0.09264558    -0.24700
C857        C  0.90590798  0.42887694  0.88065432    -0.11500
C858        C  0.88272066  0.40790266  0.89873453     0.11100
C859        C  0.89277508  0.39822817  0.93108387    -0.03300
C860        C  0.92442871  0.41271987  0.94553766    -0.06000
C861        C  0.94585816  0.43612972  0.92839235    -0.16800
C862        C  0.93785712  0.44284040  0.89480878     0.02100
C863        C  0.84667097  0.39848423  0.88416791     0.12100
C864        C  0.86946793  0.37356979  0.95040709     0.62700
H865        H  0.93133982  0.40748168  0.97103214     0.12100
C866        C  0.96117724  0.46559045  0.87349238     0.54800
H867        H  0.89823320  0.43529273  0.85557395     0.07900
C868        C  0.81584807  0.42018520  0.88627302    -0.05900
C869        C  0.78151904  0.40862173  0.87462192    -0.06600
C870        C  0.77746484  0.37643128  0.86101779    -0.16200
C871        C  0.80874813  0.35547720  0.85721437    -0.01800
C872        C  0.84311345  0.36702003  0.86898151    -0.09400
C873        C  0.81922333  0.45520247  0.90105260     0.64900
H874        H  0.75728360  0.42437003  0.87674327     0.10400
C875        C  0.80608933  0.32160994  0.84006312     0.63300
H876        H  0.86744113  0.35136615  0.86701791     0.07700
F877        F  0.94352692  0.49609719  0.87026559    -0.19700
F878        F  0.96534403  0.45136333  0.84247769    -0.16000
F879        F  0.99619444  0.47077824  0.88642009    -0.19500
F880        F  0.86919409  0.34290477  0.93431687    -0.22800
F881        F  0.83358122  0.38511984  0.95304677    -0.24300
F882        F  0.88318138  0.36880754  0.98198306    -0.18300
F883        F  0.79097250  0.32550972  0.80889674    -0.20800
F884        F  0.78413036  0.30021170  0.85809463    -0.21900
F885        F  0.84043059  0.30676395  0.83660975    -0.19100
F886        F  0.78547550  0.47146518  0.90209844    -0.19200
F887        F  0.84294053  0.47422871  0.88219793    -0.23100
F888        F  0.83287064  0.45353680  0.93293831    -0.24700
C889        C  0.90813673  0.64882771  0.23104033    -0.11500
C890        C  0.92159297  0.66960796  0.20619906     0.11100
C891        C  0.91783125  0.70470319  0.20885136    -0.03300
C892        C  0.90095093  0.71800483  0.23712893    -0.06000
C893        C  0.88802528  0.69734677  0.26261917    -0.16800
C894        C  0.89176835  0.66197636  0.25965440     0.02100
C895        C  0.94022019  0.65348795  0.17799438     0.12100
C896        C  0.93187003  0.72787161  0.18207988     0.62700
H897        H  0.89766890  0.74487357  0.23947706     0.12100
C898        C  0.87988058  0.63796142  0.28656666     0.54800
H899        H  0.91110524  0.62199456  0.22786905     0.07900
C900        C  0.97706379  0.64194966  0.18051590    -0.05900
C901        C  0.99218181  0.62459051  0.15359161    -0.06600
C902        C  0.97139793  0.61801431  0.12504016    -0.16200
C903        C  0.93488471  0.63017045  0.12221524    -0.01800
C904        C  0.91973856  0.64784128  0.14901437    -0.09400
C905        C  0.99960054  0.64630923  0.21205178     0.64900
H906        H  0.01982043  0.61463194  0.15522222     0.10400
C907        C  0.91223013  0.62428846  0.09111974     0.63300
H908        H  0.89149390  0.65673627  0.14792421     0.07700
F909        F  0.89500544  0.64775160  0.31656157    -0.19700
F910        F  0.89149077  0.60550827  0.28020854    -0.16000
F911        F  0.84176641  0.63746914  0.28869881    -0.19500
F912        F  0.91277899  0.72182912  0.15300062    -0.22800
F913        F  0.96910998  0.72241518  0.17686900    -0.24300
F914        F  0.92725377  0.76129280  0.19046809    -0.18300
F915        F  0.87767674  0.63900286  0.09315379    -0.20800
F916        F  0.90738119  0.59029684  0.08593768    -0.21900
F917        F  0.93043092  0.63779674  0.06438584    -0.19100
F918        F  0.03635079  0.63802654  0.20735331    -0.19200
F919        F  0.98553908  0.62575546  0.23626749    -0.23100
F920        F  0.99827580  0.67918537  0.22295955    -0.24700
C921        C  0.88616793  0.85391499  0.33726504    -0.11500
C922        C  0.90999432  0.85452055  0.36468984     0.11100
C923        C  0.92291972  0.82414229  0.37849685    -0.03300
C924        C  0.91042865  0.79381220  0.36485778    -0.06000
C925        C  0.88565985  0.79326871  0.33831881    -0.16800
C926        C  0.87378751  0.82338451  0.32363774     0.02100
C927        C  0.91829580  0.88690222  0.38089647     0.12100
C928        C  0.94818638  0.82366028  0.40859949     0.62700
H929        H  0.91880667  0.77019932  0.37558096     0.12100
C930        C  0.84737355  0.82286476  0.29442575     0.54800
H931        H  0.87646494  0.87746814  0.32736549     0.07900
C932        C  0.94866248  0.90695979  0.37174507    -0.05900
C933        C  0.95970147  0.93303919  0.39319754    -0.06600
C934        C  0.94084867  0.93950765  0.42290924    -0.16200
C935        C  0.90790547  0.92160588  0.42982027    -0.01800
C936        C  0.89722968  0.89549907  0.40848965    -0.09400
C937        C  0.96929684  0.90039676  0.33979943     0.64900
H938        H  0.98411808  0.94759913  0.38758800     0.10400
C939        C  0.88419994  0.92937559  0.45967458     0.63300
H940        H  0.87348491  0.88010531  0.41431392     0.07700
F941        F  0.86286214  0.80494856  0.26863901    -0.19700
F942        F  0.83956638  0.85480651  0.28334668    -0.16000
F943        F  0.81452714  0.80775697  0.30338482    -0.19500
F944        F  0.92890855  0.83442553  0.43605053    -0.22800
F945        F  0.97827667  0.84442428  0.40393273    -0.24300
F946        F  0.96146571  0.79179136  0.41480268    -0.18300
F947        F  0.84986538  0.91416599  0.45730228    -0.20800
F948        F  0.87864112  0.96357541  0.46232223    -0.21900
F949        F  0.90133271  0.91775099  0.48790131    -0.19100
F950        F  0.99842109  0.92248874  0.33576460    -0.19200
F951        F  0.94534301  0.90410541  0.31337189    -0.23100
F952        F  0.98332511  0.86819192  0.33938507    -0.24700
C953        C  0.76855699  0.68323873  0.40454889    -0.11500
C954        C  0.74212112  0.66558768  0.38603037     0.11100
C955        C  0.74341611  0.66569258  0.35119744    -0.03300
C956        C  0.77217045  0.68325351  0.33591416    -0.06000
C957        C  0.79943737  0.70023432  0.35439019    -0.16800
C958        C  0.79795664  0.70001946  0.38942411     0.02100
C959        C  0.71327936  0.64742301  0.40421927     0.12100
C960        C  0.71487427  0.64704960  0.33038109     0.62700
H961        H  0.77368925  0.68373613  0.30923198     0.12100
C962        C  0.82790459  0.71574505  0.41100615     0.54800
H963        H  0.76626461  0.68312457  0.43120181     0.07900
C964        C  0.72058979  0.61647565  0.41984049    -0.05900
C965        C  0.69249626  0.60187494  0.43874679    -0.06600
C966        C  0.65797733  0.61734440  0.44197597    -0.16200
C967        C  0.65042235  0.64773939  0.42572959    -0.01800
C968        C  0.67860967  0.66265400  0.40734378    -0.09400
C969        C  0.75776895  0.59908250  0.41646388     0.64900
H970        H  0.69727107  0.57841617  0.45134883     0.10400
C971        C  0.61278276  0.66425134  0.42821100     0.63300
H972        H  0.67400047  0.68654433  0.39551181     0.07700
F973        F  0.86231115  0.70479748  0.40087047    -0.19700
F974        F  0.82397520  0.70712448  0.44385815    -0.16000
F975        F  0.82623049  0.75026892  0.40903734    -0.19500
F976        F  0.68023700  0.66062375  0.33544695    -0.22800
F977        F  0.71424009  0.61360047  0.33893581    -0.24300
F978        F  0.72256873  0.64894142  0.29701255    -0.18300
F979        F  0.61079824  0.69323764  0.40975477    -0.20800
F980        F  0.60569426  0.67245894  0.46076290    -0.21900
F981        F  0.58577127  0.64244005  0.41679681    -0.19100
F982        F  0.75788523  0.56802430  0.43143775    -0.19200
F983        F  0.78522185  0.61832660  0.43102271    -0.23100
F984        F  0.76601759  0.59437665  0.38348238    -0.24700
C985        C  0.91534037  0.76678776  0.93074240    -0.11500
C986        C  0.93499059  0.74153771  0.91464747     0.11100
C987        C  0.93843523  0.74141499  0.87994337    -0.03300
C988        C  0.92130871  0.76717282  0.86213390    -0.06000
C989        C  0.90027863  0.79206239  0.87804978    -0.16800
C990        C  0.89777326  0.79231661  0.91310194     0.02100
C991        C  0.94779678  0.71320653  0.93445068     0.12100
C992        C  0.95915686  0.71358891  0.86198424     0.62700
H993        H  0.92321528  0.76741830  0.83546929     0.12100
C994        C  0.87700068  0.81913412  0.93224213     0.54800
H995        H  0.91288686  0.76558192  0.95734978     0.07900
C996        C  0.98331737  0.71228911  0.94876301    -0.05900
C997        C  0.99485556  0.68237014  0.96350489    -0.06600
C998        C  0.97119102  0.65439326  0.96550310    -0.16200
C999        C  0.93422509  0.65685937  0.95378048    -0.01800
C1000       C  0.92334809  0.68640889  0.93815386    -0.09400
C1001       C  0.00794401  0.74316851  0.94969329     0.64900
H1002       H  0.02260561  0.68062101  0.97347120     0.10400
C1003       C  0.90610474  0.62888784  0.95751380     0.63300
H1004       H  0.89586034  0.68853725  0.92762464     0.07700
F1005       F  0.88417844  0.81751628  0.96580403    -0.19700
F1006       F  0.83937170  0.81498571  0.92768076    -0.16000
F1007       F  0.88760520  0.85055194  0.92173061    -0.19500
F1008       F  0.94272166  0.68300449  0.86817823    -0.22800
F1009       F  0.99546573  0.71247703  0.87264161    -0.24300
F1010       F  0.95925691  0.71825907  0.82818154    -0.18300
F1011       F  0.87053062  0.63973778  0.95076893    -0.20800
F1012       F  0.90660730  0.61715420  0.98954124    -0.21900
F1013       F  0.91412758  0.60310203  0.93576434    -0.19100
F1014       F  0.04232772  0.73630398  0.96314095    -0.19200
F1015       F  0.99134971  0.76763238  0.96884458    -0.23100
F1016       F  0.01319681  0.75562763  0.91834140    -0.24700
C1017       C  0.76037426  0.91079760  0.88388317    -0.11500
C1018       C  0.72950854  0.88961690  0.88438380     0.11100
C1019       C  0.73127577  0.85745300  0.86961337    -0.03300
C1020       C  0.76516119  0.84683622  0.85616331    -0.06000
C1021       C  0.79655480  0.86757190  0.85703897    -0.16800
C1022       C  0.79434625  0.90001672  0.87120051     0.02100
C1023       C  0.69605666  0.90242834  0.90100052     0.12100
C1024       C  0.69771000  0.83456668  0.86843596     0.62700
H1025       H  0.76766526  0.82200551  0.84544304     0.12100
C1026       C  0.82820665  0.92226974  0.87495930     0.54800
H1027       H  0.75791972  0.93549552  0.89492558     0.07900
C1028       C  0.69318001  0.90294336  0.93589867    -0.05900
C1029       C  0.66364812  0.92039746  0.95024303    -0.06600
C1030       C  0.63791458  0.93763278  0.93088987    -0.16200
C1031       C  0.63968740  0.93587463  0.89611401    -0.01800
C1032       C  0.66913063  0.91831388  0.88160224    -0.09400
C1033       C  0.72161740  0.88605251  0.95798834     0.64900
H1034       H  0.66129599  0.92205540  0.97685681     0.10400
C1035       C  0.61039839  0.95223551  0.87472545     0.63300
H1036       H  0.67214116  0.91784798  0.85501655     0.07700
F1037       F  0.82016368  0.95199404  0.89121447    -0.19700
F1038       F  0.84218445  0.93007581  0.84429032    -0.16000
F1039       F  0.85493907  0.90576589  0.89308034    -0.19500
F1040       F  0.66935112  0.84984344  0.85124024    -0.22800
F1041       F  0.68585133  0.82783546  0.90005595    -0.24300
F1042       F  0.70542801  0.80436031  0.85296438    -0.18300
F1043       F  0.61173032  0.98660737  0.87871751    -0.20800
F1044       F  0.57582473  0.94077923  0.88377650    -0.21900
F1045       F  0.61534245  0.94496668  0.84158895    -0.19100
F1046       F  0.71291356  0.88946296  0.99108845    -0.19200
F1047       F  0.75608221  0.90011702  0.95335492    -0.23100
F1048       F  0.72330317  0.85224286  0.95070145    -0.24700
C1049       C  0.95866199  0.88727048  0.75328843    -0.11500
C1050       C  0.93629698  0.90010815  0.72815258     0.19900
C1051       C  0.89752223  0.89665167  0.72970945    -0.03300
C1052       C  0.88215723  0.88092693  0.75725680    -0.06000
C1053       C  0.90421872  0.86869200  0.78319573    -0.16800
C1054       C  0.94343748  0.87183216  0.78121810     0.02100
C1055       C  0.95411290  0.91655945  0.69985538     0.12100
C1056       C  0.87252571  0.90945714  0.70226404     0.62700
H1057       H  0.85246507  0.87795219  0.75860744     0.12100
C1058       C  0.96943964  0.86021262  0.80845293     0.54800
H1059       H  0.98832681  0.88977614  0.75083116     0.07900
C1060       C  0.96516000  0.95048336  0.70099500    -0.05900
C1061       C  0.97824971  0.96517826  0.67192301    -0.06600
C1062       C  0.97983068  0.94726891  0.64182237    -0.16200
C1063       C  0.96947907  0.91281535  0.64125106    -0.01800
C1064       C  0.95758881  0.89802018  0.67067779    -0.09400
C1065       C  0.96199702  0.97124705  0.73248382     0.64900
H1066       H  0.98612873  0.99135052  0.67232460     0.10400
C1067       C  0.97066157  0.89134962  0.61020473     0.63300
H1068       H  0.94924734  0.87195083  0.67096977     0.07700
F1069       F  0.00563491  0.86980580  0.80274118    -0.19700
F1070       F  0.96885199  0.82564390  0.81039003    -0.16000
F1071       F  0.95895241  0.87409047  0.83835041    -0.19500
F1072       F  0.87822618  0.89094259  0.67377972    -0.22800
F1073       F  0.88005981  0.94277571  0.69603872    -0.24300
F1074       F  0.83554428  0.90695075  0.71041209    -0.18300
F1075       F  0.00538202  0.89317200  0.59630782    -0.20800
F1076       F  0.94423501  0.90222495  0.58801024    -0.21900
F1077       F  0.96334459  0.85796484  0.61662404    -0.19100
F1078       F  0.97396565  0.00386409  0.72808666    -0.19200
F1079       F  0.98326494  0.95720148  0.75719526    -0.23100
F1080       F  0.92558308  0.97232782  0.74258120    -0.24700
loop_ 
_geom_bond_atom_site_label_1 
_geom_bond_atom_site_label_2 
_geom_bond_distance 
_geom_bond_site_symmetry_2 
_ccdc_geom_bond_type 
C1            N2   1.356       .  A
C1            N6   1.362       .  A
C1         C1053   1.488       .  S
N2            C3   1.357       .  A
C3            N4   1.354       .  A
C3          C989   1.478       .  S
N4            C5   1.353       .  A
C5            N6   1.357       .  A
C5         C1021   1.472       .  S
C7            N8   1.356       .  A
C7           N12   1.357       .  A
C7          C893   1.481       .  S
N8            C9   1.358       .  A
C9           N10   1.354       .  A
C9          C957   1.477       .  S
N10          C11   1.354       .  A
C11          N12   1.353       .  A
C11         C925   1.460       .  S
Zr13         O14   2.440       .  S
Zr13         O15   2.410   1_554  S
Zr13         O16   2.434   1_454  S
Zr13         O19   2.428       .  S
Zr13         O21   2.383   1_554  S
Zr13         O22   2.383       .  S
Zr13         O23   2.403   1_455  S
Zr13         O24   2.393       .  S
O14          H70   0.991   1_554  S
O14          H78   0.990       .  S
O15          C35   1.278       .  A
O16          C37   1.283       .  A
O17         Zr27   2.412       .  S
O17          C36   1.279       .  A
O18         Zr26   2.416       .  S
O18          C37   1.282       .  A
O19          C36   1.284       .  A
O20         Zr28   2.416       .  S
O20          C35   1.281       .  A
O21         Zr26   2.393   1_455  S
O21         Zr28   2.378       .  S
O22         Zr27   2.386       .  S
O22         Zr28   2.375   1_554  S
O22          H57   0.966       .  S
O23         Zr26   2.393   1_554  S
O23         Zr43   2.392       .  S
O23          H60   0.966       .  S
O24         Zr27   2.391       .  S
O24         Zr43   2.388   1_455  S
Zr25         O50   2.440       .  S
Zr25         O44   2.426       .  S
Zr25         O52   2.432       .  S
Zr25         O40   2.419       .  S
Zr25         O31   2.401       .  S
Zr25         O32   2.404   1_554  S
Zr25         O33   2.382   1_455  S
Zr25         O34   2.378       .  S
Zr26         O45   2.435       .  S
Zr26         O38   2.435       .  S
Zr26         O39   2.420       .  S
Zr26         O32   2.394   1_655  S
Zr26         O33   2.386   1_556  S
Zr27         O29   2.434       .  S
Zr27         O51   2.437       .  S
Zr27         O53   2.415       .  S
Zr27         O31   2.392       .  S
Zr27         O34   2.387       .  S
Zr28         O54   2.435       .  S
Zr28         O55   2.437       .  S
Zr28         O30   2.438       .  S
Zr28         O31   2.402   1_556  S
Zr28         O32   2.386       .  S
O29          H66   0.990       .  S
O30          H61   0.990       .  S
O30          H75   0.990       .  S
O32          H58   0.966       .  S
O33         Zr43   2.380       .  S
O34         Zr43   2.372   1_455  S
O34          H59   0.966       .  S
C35         C806   1.469       .  S
C36         C838   1.477       .  S
C37         C861   1.471       .  S
O38          H74   0.990   1_655  S
O39          C41   1.281       .  A
O40          C41   1.283   1_454  A
C41         C998   1.476       .  S
O42         Zr43   2.436       .  S
O42          H71   0.990       .  S
Zr43         O46   2.435       .  S
Zr43         O47   2.437   1_655  S
Zr43         O48   2.422       .  S
O44          C49   1.281   1_455  A
O45          H62   0.990   1_556  S
O45          H77   0.990       .  S
O46          H63   0.990       .  S
O47          H67   0.990       .  S
O47          H76   0.990       .  S
O48          C49   1.282       .  A
C49         C902   1.466       .  S
O50          H69   0.991       .  S
O50          H73   0.990       .  S
O51          H65   0.990       .  S
O51          H72   0.990       .  S
O52          C56   1.283       .  A
O53          C56   1.280       .  A
O54          H64   0.990       .  S
O55          H68   0.990       .  S
C56         C774   1.467       .  S
C79          N80   1.356       .  A
C79          N84   1.355       .  A
C79         C733   1.469       .  S
N80          C81   1.356       .  A
C81          N82   1.356       .  A
C81         C870   1.471       .  S
N82          C83   1.356       .  A
C83          N84   1.354       .  A
C83         C701   1.463       .  S
Zr85         O86   2.440       .  S
Zr85         O87   2.430       .  S
Zr85         O88   2.434       .  S
Zr85         O91   2.423   1_554  S
Zr85         O93   2.375       .  S
Zr85         O94   2.381       .  S
Zr85         O95   2.403       .  S
Zr85         O96   2.400   1_554  S
O86         H142   0.991       .  S
O86         H150   0.990       .  S
O87         C107   1.282       .  A
O88         C109   1.284       .  A
O89         Zr99   2.422       .  S
O89         C108   1.281       .  A
O90         Zr98   2.418       .  S
O90         C109   1.280       .  A
O91         C108   1.282       .  A
O92        Zr100   2.420       .  S
O92         C107   1.282       .  A
O93         Zr98   2.381       .  S
O93        Zr100   2.374       .  S
O94         Zr99   2.390   1_554  S
O94        Zr100   2.378       .  S
O94         H129   0.967       .  S
O95         Zr98   2.397       .  S
O95        Zr115   2.402   1_554  S
O95         H132   0.965       .  S
O96         Zr99   2.388       .  S
O96        Zr115   2.398       .  S
Zr97        O122   2.439       .  S
Zr97        O116   2.430   1_554  S
Zr97        O124   2.428   1_554  S
Zr97        O112   2.438       .  S
Zr97        O103   2.401       .  S
Zr97        O104   2.404       .  S
Zr97        O105   2.375       .  S
Zr97        O106   2.383   1_564  S
Zr98        O117   2.438       .  S
Zr98        O110   2.434       .  S
Zr98        O111   2.407   1_545  S
Zr98        O104   2.393   1_545  S
Zr98        O105   2.388   1_545  S
Zr99        O101   2.433       .  S
Zr99        O123   2.439       .  S
Zr99        O125   2.415   1_545  S
Zr99        O103   2.393   1_546  S
Zr99        O106   2.391       .  S
Zr100       O126   2.435       .  S
Zr100       O127   2.435   1_545  S
Zr100       O102   2.436       .  S
Zr100       O103   2.389   1_545  S
Zr100       O104   2.395   1_545  S
O101        H138   0.990       .  S
O102        H133   0.990       .  S
O102        H147   0.990       .  S
O104        H130   0.967       .  S
O105       Zr115   2.365   1_564  S
O106       Zr115   2.376       .  S
O106        H131   0.966   1_545  S
C107        C614   1.478       .  S
C108        C710   1.465       .  S
C109        C669   1.474       .  S
O110        H146   0.990   1_545  S
O111        C113   1.281       .  A
O112        C113   1.285       .  A
C113        C582   1.474       .  S
O114       Zr115   2.435       .  S
O114        H143   0.990       .  S
Zr115       O118   2.435       .  S
Zr115       O119   2.438       .  S
Zr115       O120   2.433   1_545  S
O116        C121   1.283       .  A
O117        H134   0.990       .  S
O117        H149   0.990       .  S
O118        H135   0.990       .  S
O119        H139   0.990       .  S
O119        H148   0.990       .  S
O120        C121   1.283       .  A
C121        C646   1.481       .  S
O122        H141   0.991   1_554  S
O122        H145   0.990       .  S
O123        H137   0.990       .  S
O123        H144   0.990       .  S
O124        C128   1.282       .  A
O125        C128   1.281       .  A
O126        H136   0.990       .  S
O127        H140   0.990       .  S
C128       C1030   1.465       .  S
C151        N152   1.359       .  A
C151        N156   1.358       .  A
C151        C541   1.489       .  S
N152        C153   1.356       .  A
C153        N154   1.358       .  A
C153        C829   1.480       .  S
N154        C155   1.356       .  A
C155        N156   1.358       .  A
C155        C678   1.478       .  S
C157        N158   1.357       .  A
C157        N162   1.362       .  A
C157        C637   1.482       .  S
N158        C159   1.353       .  A
C159        N160   1.355       .  A
C159        C477   1.470       .  S
N160        C161   1.358       .  A
C161        N162   1.363       .  A
C161        C518   1.483       .  S
Zr163       O164   2.441       .  S
Zr163       O165   2.439   1_455  S
Zr163       O166   2.431   1_445  S
Zr163       O169   2.426       .  S
Zr163       O171   2.380   1_455  S
Zr163       O172   2.379       .  S
Zr163       O173   2.402   1_545  S
Zr163       O174   2.400       .  S
O164        H220   0.990   1_455  S
O164        H228   0.990       .  S
O165        C185   1.284       .  A
O166        C187   1.283       .  A
O167       Zr177   2.425       .  S
O167        C186   1.282       .  A
O168       Zr176   2.426       .  S
O168        C187   1.283       .  A
O169        C186   1.283       .  A
O170       Zr178   2.407       .  S
O170        C185   1.280       .  A
O171       Zr176   2.392   1_545  S
O171       Zr178   2.384       .  S
O172       Zr177   2.384       .  S
O172       Zr178   2.381   1_455  S
O172        H207   0.965       .  S
O173       Zr176   2.396   1_455  S
O173       Zr193   2.395       .  S
O173        H210   0.965       .  S
O174       Zr177   2.390       .  S
O174       Zr193   2.398   1_545  S
Zr175       O200   2.437       .  S
Zr175       O194   2.406   1_545  S
Zr175       O202   2.429       .  S
Zr175       O190   2.425   1_545  S
Zr175       O181   2.397       .  S
Zr175       O182   2.395   1_455  S
Zr175       O183   2.377   1_545  S
Zr175       O184   2.379       .  S
Zr176       O195   2.434       .  S
Zr176       O188   2.435       .  S
Zr176       O189   2.437       .  S
Zr176       O182   2.393   1_565  S
Zr176       O183   2.386   1_655  S
Zr177       O179   2.436       .  S
Zr177       O201   2.436       .  S
Zr177       O203   2.421       .  S
Zr177       O181   2.388       .  S
Zr177       O184   2.389       .  S
Zr178       O204   2.437       .  S
Zr178       O205   2.436       .  S
Zr178       O180   2.437       .  S
Zr178       O181   2.394   1_655  S
Zr178       O182   2.387       .  S
O179        H216   0.990       .  S
O180        H211   0.991       .  S
O180        H225   0.990       .  S
O182        H208   0.966       .  S
O183       Zr193   2.373       .  S
O184       Zr193   2.365   1_545  S
O184        H209   0.966       .  S
C185        C454   1.484       .  S
C186        C550   1.478       .  S
C187        C934   1.482       .  S
O188        H224   0.990       .  S
O189        C191   1.284       .  A
O190        C191   1.284   1_455  A
C191       C1062   1.490       .  S
O192       Zr193   2.439       .  S
O192        H221   0.991       .  S
Zr193       O196   2.439       .  S
Zr193       O197   2.440   1_565  S
Zr193       O198   2.440       .  S
O194        C199   1.277       .  A
O195        H212   0.990   1_655  S
O195        H227   0.989       .  S
O196        H213   0.990       .  S
O197        H217   0.990       .  S
O197        H226   0.990       .  S
O198        C199   1.286       .  A
C199        C486   1.488       .  S
O200        H219   0.990   1_455  S
O200        H223   0.990       .  S
O201        H215   0.990       .  S
O201        H222   0.990       .  S
O202        C206   1.284       .  A
O203        C206   1.284       .  A
O204        H214   0.990       .  S
O205        H218   0.990       .  S
C206        C413   1.479       .  S
C229        N230   1.356       .  A
C229        N234   1.363       .  A
C229        C605   1.489       .  S
N230        C231   1.352       .  A
C231        N232   1.357       .  A
C231        C445   1.487       .  S
N232        C233   1.360       .  A
C233        N234   1.363       .  A
C233        C390   1.485       .  S
C235        N236   1.357       .  A
C235        N240   1.355       .  A
C235        C797   1.475       .  S
N236        C237   1.353       .  A
C237        N238   1.356       .  A
C237        C349   1.480       .  S
N238        C239   1.355       .  A
C239        N240   1.356       .  A
C239        C422   1.460       .  S
C241        N242   1.358       .  A
C241        N246   1.358       .  A
C241        C317   1.473       .  S
N242        C243   1.355       .  A
C243        N244   1.354       .  A
C243        C765   1.469       .  S
N244        C245   1.355       .  A
C245        N246   1.357       .  A
C245        C573   1.473       .  S
Zr247       O248   2.440       .  S
Zr247       O249   2.429       .  S
Zr247       O250   2.442       .  S
Zr247       O253   2.427       .  S
Zr247       O255   2.381       .  S
Zr247       O256   2.384       .  S
Zr247       O257   2.403       .  S
Zr247       O258   2.401       .  S
O248        H304   0.990       .  S
O248        H312   0.990       .  S
O249        C269   1.282       .  A
O250        C271   1.285       .  A
O251       Zr261   2.419       .  S
O251        C270   1.280       .  A
O252       Zr260   2.437       .  S
O252        C271   1.284       .  A
O253        C270   1.285       .  A
O254       Zr262   2.419       .  S
O254        C269   1.282       .  A
O255       Zr260   2.387       .  S
O255       Zr262   2.378       .  S
O256       Zr261   2.390       .  S
O256       Zr262   2.373       .  S
O256        H291   0.965       .  S
O257       Zr260   2.394       .  S
O257       Zr277   2.400       .  S
O257        H294   0.965       .  S
O258       Zr261   2.392       .  S
O258       Zr277   2.393       .  S
Zr259       O284   2.436       .  S
Zr259       O278   2.419       .  S
Zr259       O286   2.439       .  S
Zr259       O274   2.436       .  S
Zr259       O265   2.394       .  S
Zr259       O266   2.404       .  S
Zr259       O267   2.379       .  S
Zr259       O268   2.385       .  S
Zr260       O279   2.437       .  S
Zr260       O272   2.435       .  S
Zr260       O273   2.416       .  S
Zr260       O266   2.398       .  S
Zr260       O267   2.390       .  S
Zr261       O263   2.436       .  S
Zr261       O285   2.437       .  S
Zr261       O287   2.432       .  S
Zr261       O265   2.394       .  S
Zr261       O268   2.386       .  S
Zr262       O288   2.436       .  S
Zr262       O289   2.435       .  S
Zr262       O264   2.438       .  S
Zr262       O265   2.386       .  S
Zr262       O266   2.398       .  S
O263        H300   0.990       .  S
O264        H295   0.990       .  S
O264        H309   0.990       .  S
O266        H292   0.965       .  S
O267       Zr277   2.373       .  S
O268       Zr277   2.384       .  S
O268        H293   0.965       .  S
C269        C358   1.481       .  S
C270        C742   1.489       .  S
C271        C509   1.482       .  S
O272        H308   0.990       .  S
O273        C275   1.282       .  A
O274        C275   1.284       .  A
C275        C326   1.474       .  S
O276       Zr277   2.439       .  S
O276        H305   0.990       .  S
Zr277       O280   2.436       .  S
Zr277       O281   2.438       .  S
Zr277       O282   2.420       .  S
O278        C283   1.280       .  A
O279        H296   0.990       .  S
O279        H311   0.990       .  S
O280        H297   0.990       .  S
O281        H301   0.990       .  S
O281        H310   0.990       .  S
O282        C283   1.281       .  A
C283        C966   1.461       .  S
O284        H303   0.991       .  S
O284        H307   0.990       .  S
O285        H299   0.989       .  S
O285        H306   0.990       .  S
O286        C290   1.282       .  A
O287        C290   1.283       .  A
O288        H298   0.990       .  S
O289        H302   0.990       .  S
C290        C381   1.474       .  S
C313        C314   1.401       .  A
C313        C318   1.403       .  A
C313        H323   1.084       .  S
C314        C319   1.475       .  S
C314        C315   1.414       .  A
C315        C316   1.405       .  A
C315        C320   1.520       .  S
C316        C317   1.404       .  A
C316        H321   1.083       .  S
C317        C318   1.416       .  A
C318        C322   1.518       .  S
C319        C324   1.413       .  A
C319        C328   1.399       .  A
C320        F336   1.382       .  S
C320        F337   1.382       .  S
C320        F338   1.384       .  S
C322        F333   1.385       .  S
C322        F334   1.382       .  S
C322        F335   1.383       .  S
C324        C325   1.405       .  A
C324        C329   1.519       .  S
C325        C326   1.406       .  A
C325        H330   1.084       .  S
C326        C327   1.417       .  A
C327        C328   1.401       .  A
C327        C331   1.517       .  S
C328        H332   1.084       .  S
C329        F342   1.385       .  S
C329        F343   1.382       .  S
C329        F344   1.381       .  S
C331        F339   1.385       .  S
C331        F340   1.383       .  S
C331        F341   1.379       .  S
C345        C346   1.400       .  A
C345        C350   1.406       .  A
C345        H355   1.083       .  S
C346        C351   1.480       .  S
C346        C347   1.415       .  A
C347        C348   1.403       .  A
C347        C352   1.519       .  S
C348        C349   1.403       .  A
C348        H353   1.083       .  S
C349        C350   1.422       .  A
C350        C354   1.521       .  S
C351        C356   1.414       .  A
C351        C360   1.401       .  A
C352        F368   1.382       .  S
C352        F369   1.382       .  S
C352        F370   1.385       .  S
C354        F365   1.385       .  S
C354        F366   1.383       .  S
C354        F367   1.384       .  S
C356        C357   1.403       .  A
C356        C361   1.520       .  S
C357        C358   1.405       .  A
C357        H362   1.083       .  S
C358        C359   1.420       .  A
C359        C360   1.407       .  A
C359        C363   1.518       .  S
C360        H364   1.083       .  S
C361        F374   1.385       .  S
C361        F375   1.382       .  S
C361        F376   1.382       .  S
C363        F371   1.382       .  S
C363        F372   1.383       .  S
C363        F373   1.385       .  S
C377        C378   1.402       .  A
C377        C382   1.404       .  A
C377        H387   1.083       .  S
C378        C383   1.491       .  S
C378        C379   1.420       .  A
C379        C380   1.411       .  A
C379        C384   1.518       .  S
C380        C381   1.401       .  A
C380        H385   1.083       .  S
C381        C382   1.414       .  A
C382        C386   1.518       .  S
C383        C388   1.418       .  A
C383        C392   1.405       .  A
C384        F400   1.382       .  S
C384        F401   1.383       .  S
C384        F402   1.385       .  S
C386        F397   1.384       .  S
C386        F398   1.381       .  S
C386        F399   1.382       .  S
C388        C389   1.405       .  A
C388        C393   1.522       .  S
C389        C390   1.404       .  A
C389        H394   1.083       .  S
C390        C391   1.418       .  A
C391        C392   1.412       .  A
C391        C395   1.518       .  S
C392        H396   1.083       .  S
C393        F406   1.384       .  S
C393        F407   1.381       .  S
C393        F408   1.383       .  S
C395        F403   1.381       .  S
C395        F404   1.384       .  S
C395        F405   1.385       .  S
C409        C410   1.399       .  A
C409        C414   1.403       .  A
C409        H419   1.083       .  S
C410        C415   1.468       .  S
C410        C411   1.408       .  A
C411        C412   1.402       .  A
C411        C416   1.522       .  S
C412        C413   1.409       .  A
C412        H417   1.083       .  S
C413        C414   1.420       .  A
C414        C418   1.518       .  S
C415        C420   1.417       .  A
C415        C424   1.400       .  A
C416        F432   1.382       .  S
C416        F433   1.381       .  S
C416        F434   1.384       .  S
C418        F429   1.385       .  S
C418        F430   1.383       .  S
C418        F431   1.383       .  S
C420        C421   1.401       .  A
C420        C425   1.524       .  S
C421        C422   1.399       .  A
C421        H426   1.084       .  S
C422        C423   1.411       .  A
C423        C424   1.403       .  A
C423        C427   1.516       .  S
C424        H428   1.083       .  S
C425        F438   1.384       .  S
C425        F439   1.382       .  S
C425        F440   1.381       .  S
C427        F435   1.383       .  S
C427        F436   1.383       .  S
C427        F437   1.385       .  S
C441        C442   1.398       .  A
C441        C446   1.405       .  A
C441        H451   1.083       .  S
C442        C447   1.479       .  S
C442        C443   1.414       .  A
C443        C444   1.406       .  A
C443        C448   1.520       .  S
C444        C445   1.407       .  A
C444        H449   1.083       .  S
C445        C446   1.425       .  A
C446        C450   1.521       .  S
C447        C452   1.413       .  A
C447        C456   1.400       .  A
C448        F464   1.382       .  S
C448        F465   1.382       .  S
C448        F466   1.385       .  S
C450        F461   1.385       .  S
C450        F462   1.383       .  S
C450        F463   1.383       .  S
C452        C453   1.405       .  A
C452        C457   1.521       .  S
C453        C454   1.408       .  A
C453        H458   1.083       .  S
C454        C455   1.421       .  A
C455        C456   1.406       .  A
C455        C459   1.520       .  S
C456        H460   1.083       .  S
C457        F470   1.384       .  S
C457        F471   1.382       .  S
C457        F472   1.382       .  S
C459        F467   1.383       .  S
C459        F468   1.383       .  S
C459        F469   1.384       .  S
C473        C474   1.403       .  A
C473        C478   1.406       .  A
C473        H483   1.083       .  S
C474        C479   1.482       .  S
C474        C475   1.417       .  A
C475        C476   1.406       .  A
C475        C480   1.520       .  S
C476        C477   1.402       .  A
C476        H481   1.083       .  S
C477        C478   1.412       .  A
C478        C482   1.516       .  S
C479        C484   1.414       .  A
C479        C488   1.398       .  A
C480        F496   1.383       .  S
C480        F497   1.383       .  S
C480        F498   1.384       .  S
C482        F493   1.384       .  S
C482        F494   1.384       .  S
C482        F495   1.382       .  S
C484        C485   1.405       .  A
C484        C489   1.519       .  S
C485        C486   1.407       .  A
C485        H490   1.083       .  S
C486        C487   1.427       .  A
C487        C488   1.406       .  A
C487        C491   1.522   1_565  S
C488        H492   1.083       .  S
C489        F502   1.385       .  S
C489        F503   1.382       .  S
C489        F504   1.382       .  S
C491        F499   1.383       .  S
C491        F500   1.384       .  S
C491        F501   1.385       .  S
C505        C506   1.403       .  A
C505        C510   1.411       .  A
C505        H515   1.083       .  S
C506        C511   1.488       .  S
C506        C507   1.418       .  A
C507        C508   1.407       .  A
C507        C512   1.521       .  S
C508        C509   1.402       .  A
C508        H513   1.083       .  S
C509        C510   1.417       .  A
C510        C514   1.517       .  S
C511        C516   1.416       .  A
C511        C520   1.403       .  A
C512        F528   1.382       .  S
C512        F529   1.383       .  S
C512        F530   1.384       .  S
C514        F525   1.382       .  S
C514        F526   1.385       .  S
C514        F527   1.384       .  S
C516        C517   1.405       .  A
C516        C521   1.520       .  S
C517        C518   1.405       .  A
C517        H522   1.083       .  S
C518        C519   1.418       .  A
C519        C520   1.410       .  A
C519        C523   1.517       .  S
C520        H524   1.083       .  S
C521        F534   1.385       .  S
C521        F535   1.382       .  S
C521        F536   1.383       .  S
C523        F531   1.385       .  S
C523        F532   1.383       .  S
C523        F533   1.382       .  S
C537        C538   1.400       .  A
C537        C542   1.407       .  A
C537        H547   1.083       .  S
C538        C543   1.481       .  S
C538        C539   1.412       .  A
C539        C540   1.406       .  A
C539        C544   1.521       .  S
C540        C541   1.409       .  A
C540        H545   1.082       .  S
C541        C542   1.424       .  A
C542        C546   1.521       .  S
C543        C548   1.414       .  A
C543        C552   1.402       .  A
C544        F560   1.382       .  S
C544        F561   1.381       .  S
C544        F562   1.384       .  S
C546        F557   1.383       .  S
C546        F558   1.385       .  S
C546        F559   1.384       .  S
C548        C549   1.405       .  A
C548        C553   1.521       .  S
C549        C550   1.404       .  A
C549        H554   1.083       .  S
C550        C551   1.418       .  A
C551        C552   1.407       .  A
C551        C555   1.519       .  S
C552        H556   1.083       .  S
C553        F566   1.384       .  S
C553        F567   1.382       .  S
C553        F568   1.381       .  S
C555        F563   1.382       .  S
C555        F564   1.383       .  S
C555        F565   1.385       .  S
C569        C570   1.402       .  A
C569        C574   1.405       .  A
C569        H579   1.083       .  S
C570        C575   1.476       .  S
C570        C571   1.413       .  A
C571        C572   1.402       .  A
C571        C576   1.520       .  S
C572        C573   1.404       .  A
C572        H577   1.083       .  S
C573        C574   1.416       .  A
C574        C578   1.519       .  S
C575        C580   1.414       .  A
C575        C584   1.401       .  A
C576        F592   1.382       .  S
C576        F593   1.381       .  S
C576        F594   1.385       .  S
C578        F589   1.385       .  S
C578        F590   1.382       .  S
C578        F591   1.383       .  S
C580        C581   1.403       .  A
C580        C585   1.520       .  S
C581        C582   1.405       .  A
C581        H586   1.084       .  S
C582        C583   1.416       .  A
C583        C584   1.403       .  A
C583        C587   1.516       .  S
C584        H588   1.083       .  S
C585        F598   1.385       .  S
C585        F599   1.382       .  S
C585        F600   1.381       .  S
C587        F595   1.385       .  S
C587        F596   1.383       .  S
C587        F597   1.381       .  S
C601        C602   1.400       .  A
C601        C606   1.408       .  A
C601        H611   1.083       .  S
C602        C607   1.481       .  S
C602        C603   1.413       .  A
C603        C604   1.405       .  A
C603        C608   1.522       .  S
C604        C605   1.409       .  A
C604        H609   1.083       .  S
C605        C606   1.422       .  A
C606        C610   1.518       .  S
C607        C612   1.415       .  A
C607        C616   1.403       .  A
C608        F624   1.382       .  S
C608        F625   1.382       .  S
C608        F626   1.385       .  S
C610        F621   1.385       .  S
C610        F622   1.381       .  S
C610        F623   1.383       .  S
C612        C613   1.403       .  A
C612        C617   1.521       .  S
C613        C614   1.404       .  A
C613        H618   1.083       .  S
C614        C615   1.419       .  A
C615        C616   1.409       .  A
C615        C619   1.520       .  S
C616        H620   1.083       .  S
C617        F630   1.385       .  S
C617        F631   1.382       .  S
C617        F632   1.382       .  S
C619        F627   1.382       .  S
C619        F628   1.383       .  S
C619        F629   1.385       .  S
C633        C634   1.400       .  A
C633        C638   1.403       .  A
C633        H643   1.084       .  S
C634        C639   1.485       .  S
C634        C635   1.416       .  A
C635        C636   1.412       .  A
C635        C640   1.518       .  S
C636        C637   1.406       .  A
C636        H641   1.083       .  S
C637        C638   1.420       .  A
C638        C642   1.521       .  S
C639        C644   1.417       .  A
C639        C648   1.402       .  A
C640        F656   1.382       .  S
C640        F657   1.382       .  S
C640        F658   1.384       .  S
C642        F653   1.384       .  S
C642        F654   1.382       .  S
C642        F655   1.384       .  S
C644        C645   1.407       .  A
C644        C649   1.520       .  S
C645        C646   1.404       .  A
C645        H650   1.083       .  S
C646        C647   1.418       .  A
C647        C648   1.407       .  A
C647        C651   1.518       .  S
C648        H652   1.083       .  S
C649        F662   1.385       .  S
C649        F663   1.382       .  S
C649        F664   1.382       .  S
C651        F659   1.381       .  S
C651        F660   1.384       .  S
C651        F661   1.385       .  S
C665        C666   1.403       .  A
C665        C670   1.408       .  A
C665        H675   1.083       .  S
C666        C671   1.484       .  S
C666        C667   1.417       .  A
C667        C668   1.403       .  A
C667        C672   1.519       .  S
C668        C669   1.401       .  A
C668        H673   1.083       .  S
C669        C670   1.418       .  A
C670        C674   1.518       .  S
C671        C676   1.417       .  A
C671        C680   1.402       .  A
C672        F688   1.382       .  S
C672        F689   1.383       .  S
C672        F690   1.385       .  S
C674        F685   1.385       .  S
C674        F686   1.384       .  S
C674        F687   1.382       .  S
C676        C677   1.405       .  A
C676        C681   1.520       .  S
C677        C678   1.401       .  A
C677        H682   1.083       .  S
C678        C679   1.418       .  A
C679        C680   1.408       .  A
C679        C683   1.518       .  S
C680        H684   1.083       .  S
C681        F694   1.384       .  S
C681        F695   1.382       .  S
C681        F696   1.383       .  S
C683        F691   1.385       .  S
C683        F692   1.384       .  S
C683        F693   1.382       .  S
C697        C698   1.401       .  A
C697        C702   1.403       .  A
C697        H707   1.083       .  S
C698        C703   1.476       .  S
C698        C699   1.416       .  A
C699        C700   1.404       .  A
C699        C704   1.519       .  S
C700        C701   1.400       .  A
C700        H705   1.084       .  S
C701        C702   1.413       .  A
C702        C706   1.518       .  S
C703        C708   1.415       .  A
C703        C712   1.401       .  A
C704        F720   1.382       .  S
C704        F721   1.382       .  S
C704        F722   1.385       .  S
C706        F717   1.384       .  S
C706        F718   1.382       .  S
C706        F719   1.383       .  S
C708        C709   1.403       .  A
C708        C713   1.519       .  S
C709        C710   1.399       .  A
C709        H714   1.083       .  S
C710        C711   1.414       .  A
C711        C712   1.405       .  A
C711        C715   1.518       .  S
C712        H716   1.083       .  S
C713        F726   1.384       .  S
C713        F727   1.382       .  S
C713        F728   1.382       .  S
C715        F723   1.385       .  S
C715        F724   1.384       .  S
C715        F725   1.382       .  S
C729        C730   1.401       .  A
C729        C734   1.404       .  A
C729        H739   1.083       .  S
C730        C735   1.476       .  S
C730        C731   1.416       .  A
C731        C732   1.402       .  A
C731        C736   1.521       .  S
C732        C733   1.401       .  A
C732        H737   1.083       .  S
C733        C734   1.415       .  A
C734        C738   1.518       .  S
C735        C740   1.410       .  A
C735        C744   1.397       .  A
C736        F752   1.382       .  S
C736        F753   1.382       .  S
C736        F754   1.385       .  S
C738        F749   1.384       .  S
C738        F750   1.384       .  S
C738        F751   1.381       .  S
C740        C741   1.404       .  A
C740        C745   1.519       .  S
C741        C742   1.410       .  A
C741        H746   1.082       .  S
C742        C743   1.427       .  A
C743        C744   1.403       .  A
C743        C747   1.521       .  S
C744        H748   1.083       .  S
C745        F758   1.384       .  S
C745        F759   1.382       .  S
C745        F760   1.383       .  S
C747        F755   1.383       .  S
C747        F756   1.382       .  S
C747        F757   1.385       .  S
C761        C762   1.400       .  A
C761        C766   1.404       .  A
C761        H771   1.083       .  S
C762        C767   1.474       .  S
C762        C763   1.412       .  A
C763        C764   1.404       .  A
C763        C768   1.519       .  S
C764        C765   1.403       .  A
C764        H769   1.083       .  S
C765        C766   1.416       .  A
C766        C770   1.518       .  S
C767        C772   1.416       .  A
C767        C776   1.400       .  A
C768        F784   1.382       .  S
C768        F785   1.382       .  S
C768        F786   1.384       .  S
C770        F781   1.385       .  S
C770        F782   1.382       .  S
C770        F783   1.383       .  S
C772        C773   1.403       .  A
C772        C777   1.520       .  S
C773        C774   1.399       .  A
C773        H778   1.084       .  S
C774        C775   1.415       .  A
C775        C776   1.404       .  A
C775        C779   1.516       .  S
C776        H780   1.083       .  S
C777        F790   1.384       .  S
C777        F791   1.382       .  S
C777        F792   1.381       .  S
C779        F787   1.381       .  S
C779        F788   1.380       .  S
C779        F789   1.385       .  S
C793        C794   1.398       .  A
C793        C798   1.403       .  A
C793        H803   1.083       .  S
C794        C799   1.470       .  S
C794        C795   1.411       .  A
C795        C796   1.400       .  A
C795        C800   1.520       .  S
C796        C797   1.405       .  A
C796        H801   1.083       .  S
C797        C798   1.422       .  A
C798        C802   1.520       .  S
C799        C804   1.415       .  A
C799        C808   1.397       .  A
C800        F816   1.382       .  S
C800        F817   1.383       .  S
C800        F818   1.385       .  S
C802        F813   1.383       .  S
C802        F814   1.385       .  S
C802        F815   1.383       .  S
C804        C805   1.400       .  A
C804        C809   1.521       .  S
C805        C806   1.402       .  A
C805        H810   1.083       .  S
C806        C807   1.420       .  A
C807        C808   1.402       .  A
C807        C811   1.519       .  S
C808        H812   1.083       .  S
C809        F822   1.385       .  S
C809        F823   1.382       .  S
C809        F824   1.383       .  S
C811        F819   1.383       .  S
C811        F820   1.383       .  S
C811        F821   1.385       .  S
C825        C826   1.403       .  A
C825        C830   1.407       .  A
C825        H835   1.083       .  S
C826        C831   1.480       .  S
C826        C827   1.413       .  A
C827        C828   1.403       .  A
C827        C832   1.519       .  S
C828        C829   1.404       .  A
C828        H833   1.083       .  S
C829        C830   1.420       .  A
C830        C834   1.521       .  S
C831        C836   1.415       .  A
C831        C840   1.401       .  A
C832        F848   1.382       .  S
C832        F849   1.381       .  S
C832        F850   1.384       .  S
C834        F845   1.382       .  S
C834        F846   1.385       .  S
C834        F847   1.384       .  S
C836        C837   1.404       .  A
C836        C841   1.519       .  S
C837        C838   1.404       .  A
C837        H842   1.083       .  S
C838        C839   1.419       .  A
C839        C840   1.403       .  A
C839        C843   1.519       .  S
C840        H844   1.084       .  S
C841        F854   1.385       .  S
C841        F855   1.381       .  S
C841        F856   1.381       .  S
C843        F851   1.382       .  S
C843        F852   1.383       .  S
C843        F853   1.385       .  S
C857        C858   1.398       .  A
C857        C862   1.401       .  A
C857        H867   1.085       .  S
C858        C863   1.476       .  S
C858        C859   1.415       .  A
C859        C860   1.406       .  A
C859        C864   1.520       .  S
C860        C861   1.404       .  A
C860        H865   1.083       .  S
C861        C862   1.417       .  A
C862        C866   1.517       .  S
C863        C868   1.416       .  A
C863        C872   1.400       .  A
C864        F880   1.382       .  S
C864        F881   1.383       .  S
C864        F882   1.384       .  S
C866        F877   1.382       .  S
C866        F878   1.384       .  S
C866        F879   1.383       .  S
C868        C869   1.403       .  A
C868        C873   1.521       .  S
C869        C870   1.402       .  A
C869        H874   1.083       .  S
C870        C871   1.417       .  A
C871        C872   1.405       .  A
C871        C875   1.518       .  S
C872        H876   1.083       .  S
C873        F886   1.384       .  S
C873        F887   1.382       .  S
C873        F888   1.383       .  S
C875        F883   1.383       .  S
C875        F884   1.381       .  S
C875        F885   1.385       .  S
C889        C890   1.398       .  A
C889        C894   1.403       .  A
C889        H899   1.083       .  S
C890        C895   1.474       .  S
C890        C891   1.411       .  A
C891        C892   1.402       .  A
C891        C896   1.520       .  S
C892        C893   1.408       .  A
C892        H897   1.083       .  S
C893        C894   1.423       .  A
C894        C898   1.521       .  S
C895        C900   1.415       .  A
C895        C904   1.402       .  A
C896        F912   1.382       .  S
C896        F913   1.382       .  S
C896        F914   1.385       .  S
C898        F909   1.384       .  S
C898        F910   1.385       .  S
C898        F911   1.383       .  S
C900        C901   1.402       .  A
C900        C905   1.521       .  S
C901        C902   1.399       .  A
C901        H906   1.079   1_655  S
C902        C903   1.413       .  A
C903        C904   1.405       .  A
C903        C907   1.516       .  S
C904        H908   1.083       .  S
C905        F918   1.385   1_655  S
C905        F919   1.382       .  S
C905        F920   1.382       .  S
C907        F915   1.385       .  S
C907        F916   1.382       .  S
C907        F917   1.383       .  S
C921        C922   1.403       .  A
C921        C926   1.406       .  A
C921        H931   1.083       .  S
C922        C927   1.475       .  S
C922        C923   1.418       .  A
C923        C924   1.400       .  A
C923        C928   1.521       .  S
C924        C925   1.396       .  A
C924        H929   1.084       .  S
C925        C926   1.412       .  A
C926        C930   1.517       .  S
C927        C932   1.412       .  A
C927        C936   1.397       .  A
C928        F944   1.382       .  S
C928        F945   1.382       .  S
C928        F946   1.385       .  S
C930        F941   1.383       .  S
C930        F942   1.384       .  S
C930        F943   1.384       .  S
C932        C933   1.407       .  A
C932        C937   1.519       .  S
C933        C934   1.409       .  A
C933        H938   1.083       .  S
C934        C935   1.419       .  A
C935        C936   1.401       .  A
C935        C939   1.517       .  S
C936        H940   1.084       .  S
C937        F950   1.384       .  S
C937        F951   1.383       .  S
C937        F952   1.383       .  S
C939        F947   1.385       .  S
C939        F948   1.384       .  S
C939        F949   1.381       .  S
C953        C954   1.399       .  A
C953        C958   1.403       .  A
C953        H963   1.084       .  S
C954        C959   1.474       .  S
C954        C955   1.412       .  A
C955        C956   1.403       .  A
C955        C960   1.520       .  S
C956        C957   1.406       .  A
C956        H961   1.083       .  S
C957        C958   1.421       .  A
C958        C962   1.521       .  S
C959        C964   1.417       .  A
C959        C968   1.401       .  A
C960        F976   1.382       .  S
C960        F977   1.382       .  S
C960        F978   1.384       .  S
C962        F973   1.383       .  S
C962        F974   1.385       .  S
C962        F975   1.382       .  S
C964        C965   1.405       .  A
C964        C969   1.521       .  S
C965        C966   1.400       .  A
C965        H970   1.083       .  S
C966        C967   1.411       .  A
C967        C968   1.401       .  A
C967        C971   1.517       .  S
C968        H972   1.083       .  S
C969        F982   1.384       .  S
C969        F983   1.382       .  S
C969        F984   1.382       .  S
C971        F979   1.384       .  S
C971        F980   1.382       .  S
C971        F981   1.384       .  S
C985        C986   1.394       .  A
C985        C990   1.400       .  A
C985        H995   1.084       .  S
C986        C991   1.466       .  S
C986        C987   1.412       .  A
C987        C988   1.403       .  A
C987        C992   1.524       .  S
C988        C989   1.407       .  A
C988        H993   1.083       .  S
C989        C990   1.423       .  A
C990        C994   1.519       .  S
C991        C996   1.408       .  A
C991       C1000   1.397       .  A
C992       F1008   1.383       .  S
C992       F1009   1.382       .  S
C992       F1010   1.384       .  S
C994       F1005   1.385       .  S
C994       F1006   1.383       .  S
C994       F1007   1.382       .  S
C996        C997   1.402       .  A
C996       C1001   1.520   1_655  S
C997        C998   1.409       .  A
C997       H1002   1.083   1_655  S
C998        C999   1.421       .  A
C999       C1000   1.399       .  A
C999       C1003   1.519       .  S
C1000      H1004   1.084       .  S
C1001      F1014   1.384       .  S
C1001      F1015   1.382   1_455  S
C1001      F1016   1.382       .  S
C1003      F1011   1.385       .  S
C1003      F1012   1.383       .  S
C1003      F1013   1.382       .  S
C1017      C1018   1.400       .  A
C1017      C1022   1.402       .  A
C1017      H1027   1.083       .  S
C1018      C1023   1.478       .  S
C1018      C1019   1.414       .  A
C1019      C1020   1.409       .  A
C1019      C1024   1.519       .  S
C1020      C1021   1.405       .  A
C1020      H1025   1.083       .  S
C1021      C1022   1.415       .  A
C1022      C1026   1.519       .  S
C1023      C1028   1.418       .  A
C1023      C1032   1.404       .  A
C1024      F1040   1.382       .  S
C1024      F1041   1.381       .  S
C1024      F1042   1.384       .  S
C1026      F1037   1.385       .  S
C1026      F1038   1.382       .  S
C1026      F1039   1.382       .  S
C1028      C1029   1.403       .  A
C1028      C1033   1.522       .  S
C1029      C1030   1.399       .  A
C1029      H1034   1.084       .  S
C1030      C1031   1.412       .  A
C1031      C1032   1.405       .  A
C1031      C1035   1.517       .  S
C1032      H1036   1.083       .  S
C1033      F1046   1.385       .  S
C1033      F1047   1.381       .  S
C1033      F1048   1.381       .  S
C1035      F1043   1.381       .  S
C1035      F1044   1.384       .  S
C1035      F1045   1.384       .  S
C1049      C1050   1.398       .  A
C1049      C1054   1.407       .  A
C1049      H1059   1.083       .  S
C1050      C1055   1.476       .  S
C1050      C1051   1.412       .  A
C1051      C1052   1.402       .  A
C1051      C1056   1.521       .  S
C1052      C1053   1.407       .  A
C1052      H1057   1.083       .  S
C1053      C1054   1.427       .  A
C1054      C1058   1.522       .  S
C1055      C1060   1.412       .  A
C1055      C1064   1.396       .  A
C1056      F1072   1.382       .  S
C1056      F1073   1.383       .  S
C1056      F1074   1.384       .  S
C1058      F1069   1.385   1_655  S
C1058      F1070   1.383       .  S
C1058      F1071   1.383       .  S
C1060      C1061   1.404       .  A
C1060      C1065   1.521       .  S
C1061      C1062   1.410       .  A
C1061      H1066   1.083       .  S
C1062      C1063   1.425       .  A
C1063      C1064   1.404       .  A
C1063      C1067   1.517       .  S
C1064      H1068   1.083       .  S
C1065      F1078   1.385   1_565  S
C1065      F1079   1.382       .  S
C1065      F1080   1.382       .  S
C1067      F1075   1.382   1_655  S
C1067      F1076   1.382       .  S
C1067      F1077   1.385       .  S
