geometry optimzed in LAMMPS
_audit_creation_date              2020-12-01 
_audit_creation_method            'lammps2cif' 
_symmetry_space_group_name_H-M    'P1' 
_symmetry_Int_Tables_number       1 
_symmetry_cell_setting            triclinic 
loop_ 
_symmetry_equiv_pos_as_xyz 
  x,y,z 
_cell_length_a                    72.69775478 
_cell_length_b                    40.14526319370871 
_cell_length_c                    45.365329077930674 
_cell_angle_alpha                 90.19050200666412 
_cell_angle_beta                  89.94759239759125 
_cell_angle_gamma                 90.1391152754991 
loop_ 
_atom_site_label 
_atom_site_type_symbol 
_atom_site_fract_x 
_atom_site_fract_y 
_atom_site_fract_z 
_atom_site_charge 
O1          O  0.01713838  0.47511068  0.76930174    -0.70200
O2          O  0.97886757  0.03952824  0.76950295    -0.70400
O3          O  0.98013420  0.47186751  0.77039233    -0.70300
O4          O  0.01571304  0.04170030  0.77199286    -0.70300
O5          O  0.01762696  0.03936385  0.72430559    -0.70300
O6          O  0.97875334  0.47363418  0.72270887    -0.70300
O7          O  0.98074950  0.03932966  0.72177614    -0.70200
O8          O  0.01579622  0.47446557  0.72158463    -0.70400
V9          V  0.99769062  0.50695056  0.76940967     1.35200
V10         V  0.99889361  0.00595810  0.72453598     1.35200
C11         C  0.02299471  0.46366603  0.74498082     0.79000
C12         C  0.97357377  0.05092219  0.74493709     0.79100
C13         C  0.97312721  0.46108547  0.74669924     0.79000
C14         C  0.02298081  0.05207813  0.74844798     0.78900
C15         C  0.14579955  0.25300355  0.71082967     0.88100
C16         C  0.13399897  0.22238030  0.71825450    -0.52200
C17         C  0.12277569  0.22618690  0.74209543     0.11000
C18         C  0.12435486  0.26055435  0.75695328     0.21900
C19         C  0.13154126  0.28153615  0.70792967    -0.52900
C20         C  0.12041128  0.28537220  0.73208293     0.11100
C21         C  0.15600934  0.26163027  0.73943137    -0.52400
C22         C  0.14492460  0.26582978  0.76344382     0.11700
H23         H  0.13359229  0.20024570  0.70440907     0.16200
H24         H  0.11535734  0.26379408  0.77655147     0.01900
H25         H  0.12989434  0.29781806  0.68931640     0.16500
H26         H  0.17079290  0.26557633  0.74031445     0.16300
C27         C  0.85310050  0.24525540  0.78574167     0.88100
C28         C  0.86563816  0.21682269  0.77565766    -0.52200
C29         C  0.87475424  0.22243712  0.74998121     0.11000
C30         C  0.87037417  0.25623794  0.73588848     0.21900
C31         C  0.86614072  0.27600795  0.78622143    -0.52900
C32         C  0.87517612  0.28174249  0.76009397     0.11100
C33         C  0.84035959  0.25194891  0.75949492    -0.52400
C34         C  0.84924740  0.25778073  0.73346299     0.11700
H35         H  0.86831919  0.19504861  0.78917276     0.16200
H36         H  0.87749112  0.26062496  0.71460793     0.01900
H37         H  0.86887292  0.29158344  0.80506660     0.16500
H38         H  0.82546828  0.25230292  0.76146903     0.16300
C39         C  0.65149180  0.00129005  0.79479955     0.88100
C40         C  0.64009806  0.03259868  0.78920306    -0.52200
C41         C  0.62800456  0.03025347  0.76629238     0.11000
C42         C  0.62968196  0.49915087  0.74760810     0.21900
C43         C  0.63691784  0.47671907  0.79595810    -0.52900
C44         C  0.62556546  0.47397605  0.77206692     0.11100
C45         C  0.66145704  0.49637220  0.76466303    -0.52400
C46         C  0.65025757  0.49322843  0.74069236     0.11700
H47         H  0.64086319  0.05430090  0.80352171     0.16200
H48         H  0.62046283  0.49610985  0.72832279     0.01900
H49         H  0.63617469  0.45868901  0.81356831     0.16500
H50         H  0.67610204  0.49113246  0.76367991     0.16300
O51         O  0.48649306  0.21348618  0.73449913    -0.70200
O52         O  0.52133618  0.28500562  0.73466186    -0.70400
O53         O  0.52349922  0.21801986  0.73481541    -0.70300
O54         O  0.48448622  0.28032644  0.73340004    -0.70300
O55         O  0.48540558  0.28452298  0.78103046    -0.70300
O56         O  0.52130708  0.21504227  0.78250941    -0.70300
O57         O  0.52236881  0.28224774  0.78238843    -0.70200
O58         O  0.48454388  0.21766693  0.78204495    -0.70400
V59         V  0.50395545  0.24921517  0.73521248     1.35200
V60         V  0.50345242  0.24989328  0.78110426     1.35200
C61         C  0.47925924  0.20389736  0.75849402     0.79000
C62         C  0.52798999  0.29544914  0.75881807     0.79100
C63         C  0.52862455  0.20502595  0.75871812     0.79000
C64         C  0.47844371  0.29362293  0.75673198     0.78900
C65         C  0.35628487  0.00958125  0.71588218     0.88100
C66         C  0.36822718  0.03878347  0.72608098    -0.52200
C67         C  0.37870670  0.03263156  0.75031910     0.11000
C68         C  0.37594664  0.49527771  0.76228910     0.21900
C69         C  0.37204216  0.47760659  0.71110221    -0.52900
C70         C  0.38135393  0.47186966  0.73685989     0.11100
C71         C  0.34574088  0.49660815  0.73930644    -0.52400
C72         C  0.35491055  0.49044055  0.76499254     0.11700
H73         H  0.36920559  0.06186665  0.71371873     0.16200
H74         H  0.38365802  0.49046880  0.78294910     0.01900
H75         H  0.37421318  0.46178239  0.69212800     0.16500
H76         H  0.33090452  0.49423365  0.73738497     0.16300
N77         N  0.24370346  0.38862820  0.03325864    -0.35000
N78         N  0.26886346  0.41286718  0.98762162    -0.55600
N79         N  0.24400790  0.38813672  0.94290581    -0.35000
N80         N  0.21983274  0.36108327  0.98868369    -0.55600
C81         C  0.25875887  0.39624423  0.04941913     0.28500
C82         C  0.23309094  0.36817468  0.04984090     0.28500
C83         C  0.25905681  0.39494006  0.92626196     0.28500
C84         C  0.23291806  0.36793656  0.92682013     0.28500
C85         C  0.27634709  0.42783768  0.01151413     0.37200
C86         C  0.27675088  0.42704104  0.96371056     0.37200
C87         C  0.20911148  0.35568203  0.01255788     0.37200
C88         C  0.20902894  0.35614573  0.96489104     0.37200
C89         C  0.25763356  0.38075552  0.07665216    -0.20300
C90         C  0.24151062  0.36286435  0.07683751    -0.20300
C91         C  0.25742455  0.37889847  0.89924699    -0.20300
C92         C  0.24088475  0.36213601  0.89950608    -0.20300
C93         C  0.28909671  0.45155683  0.00281542    -0.21400
C94         C  0.28928207  0.45119396  0.97251307    -0.21400
C95         C  0.19141964  0.34729209  0.00390035    -0.21400
C96         C  0.19139417  0.34736565  0.97367096    -0.21400
C97         C  0.27294852  0.41837995  0.04098902    -0.16700
C98         C  0.21553011  0.35573218  0.04191782    -0.16700
C99         C  0.21529929  0.35634059  0.93545842    -0.16700
C100        C  0.27371812  0.41666120  0.93421987    -0.16700
H101        H  0.26739088  0.38225846  0.09461707     0.16200
H102        H  0.23650084  0.34788075  0.09494849     0.16200
H103        H  0.26706387  0.37941866  0.88106244     0.16200
H104        H  0.23534717  0.34744052  0.88153495     0.16200
H105        H  0.29755344  0.46715659  0.01684793     0.14500
H106        H  0.29786188  0.46661763  0.95859693     0.14500
H107        H  0.17982453  0.34116319  0.01785823     0.14500
H108        H  0.17979267  0.34106838  0.95978014     0.14500
H109        H  0.23997248  0.39984712  0.01354288     0.27700
H110        H  0.24047965  0.39955710  0.96269745     0.27700
O111        O  0.01853735  0.04726028  0.21402634    -0.70200
O112        O  0.98279277  0.47828774  0.22374631    -0.70400
O113        O  0.98168077  0.04364527  0.21564855    -0.70300
O114        O  0.01987851  0.47977667  0.22042566    -0.70300
O115        O  0.02180685  0.48091546  0.26809377    -0.70300
O116        O  0.98173884  0.04179606  0.26341266    -0.70300
O117        O  0.98506124  0.47753854  0.27150196    -0.70200
O118        O  0.01845258  0.04862932  0.26185087    -0.70400
V119        V  0.00122073  0.01195215  0.21566888     1.35200
V120        V  0.00185851  0.01199021  0.26162101     1.35200
C121        C  0.02429304  0.06025027  0.23768267     0.79000
C122        C  0.97778892  0.46627420  0.24818694     0.79100
C123        C  0.97493359  0.05333584  0.23996556     0.79000
C124        C  0.02742861  0.46934625  0.24379437     0.78900
C125        C  0.14916187  0.25620522  0.27133429     0.88100
C126        C  0.15938514  0.26179212  0.24205773    -0.52200
C127        C  0.14816592  0.26585894  0.21822877     0.11000
C128        C  0.12756087  0.26437364  0.22580825     0.21900
C129        C  0.13648262  0.28716828  0.27352322    -0.52900
C130        C  0.12503458  0.29108160  0.24975060     0.11100
C131        C  0.13599873  0.22711357  0.26553693    -0.52400
C132        C  0.12464889  0.23143543  0.24208474     0.11700
H133        H  0.17424936  0.26404802  0.24058242     0.16200
H134        H  0.11845531  0.26739052  0.20637019     0.01900
H135        H  0.13650354  0.30497750  0.29141773     0.16500
H136        H  0.13485708  0.20577256  0.28011954     0.16300
C137        C  0.85379660  0.26172258  0.28989475     0.88100
C138        C  0.84345561  0.25846095  0.26068442    -0.52200
C139        C  0.85430980  0.25723961  0.23603839     0.11000
C140        C  0.87513581  0.25956923  0.24338154     0.21900
C141        C  0.86717406  0.23167507  0.28930742    -0.52900
C142        C  0.87823543  0.23069532  0.26486323     0.11100
C143        C  0.86630712  0.29214295  0.28616273    -0.52400
C144        C  0.87789718  0.29106721  0.26256693     0.11700
H145        H  0.82869256  0.25445703  0.26020350     0.16200
H146        H  0.88434898  0.25856638  0.22396976     0.01900
H147        H  0.86822521  0.21248191  0.30577391     0.16500
H148        H  0.86615104  0.31274698  0.30172085     0.16300
C149        C  0.64781991  0.99603602  0.23298544     0.88100
C150        C  0.65712796  0.99342369  0.26331327    -0.52200
C151        C  0.64722171  0.48486231  0.28231678     0.11000
C152        C  0.62660524  0.48752027  0.27460277     0.21900
C153        C  0.63490276  0.46145023  0.22778172    -0.52900
C154        C  0.62352918  0.45952895  0.25188955     0.11100
C155        C  0.63365769  0.02413443  0.23612115    -0.52400
C156        C  0.62193862  0.02068472  0.25917890     0.11700
H157        H  0.67197390  0.99260608  0.26581305     0.16200
H158        H  0.61722065  0.48652210  0.29386153     0.01900
H159        H  0.63435062  0.44268688  0.21071088     0.16500
H160        H  0.63240990  0.04449350  0.22052188     0.16300
C161        C  0.35352138  0.48344654  0.21427244     0.88100
C162        C  0.34148266  0.49127711  0.24121640    -0.52200
C163        C  0.35184981  0.99479321  0.26834678     0.11000
C164        C  0.37279844  0.99036343  0.26484290     0.21900
C165        C  0.36829509  0.01079394  0.21490860    -0.52900
C166        C  0.37803501  0.01506098  0.24046094     0.11100
C167        C  0.36518610  0.45328402  0.22336505    -0.52400
C168        C  0.37483339  0.45742934  0.24894437     0.11700
H169        H  0.32666371  0.49436946  0.23982597     0.16200
H170        H  0.38064771  0.99388103  0.28561963     0.01900
H171        H  0.36998926  0.02809894  0.19693441     0.16500
H172        H  0.36649513  0.43115119  0.20968318     0.16300
O173        O  0.51818954  0.27315091  0.24156305    -0.70200
O174        O  0.48031284  0.20847222  0.23901011    -0.70400
O175        O  0.48128427  0.27531135  0.24097079    -0.70300
O176        O  0.51710008  0.20645469  0.24009275    -0.70300
O177        O  0.51678293  0.20558199  0.28790907    -0.70300
O178        O  0.48061486  0.27347232  0.28868898    -0.70300
O179        O  0.48002290  0.20614762  0.28679484    -0.70200
O180        O  0.51772963  0.27260126  0.28931277    -0.70400
V181        V  0.49920545  0.24086586  0.24136632     1.35200
V182        V  0.49877436  0.23956039  0.28728558     1.35200
C183        C  0.52456726  0.28395373  0.26565651     0.79000
C184        C  0.47392345  0.19571190  0.26227929     0.79100
C185        C  0.47472657  0.28611136  0.26502300     0.79000
C186        C  0.52296151  0.19411306  0.26392221     0.78900
N187        N  0.76220294  0.10565453  0.96999553    -0.35000
N188        N  0.78393245  0.13779317  0.01523101    -0.55600
N189        N  0.76090213  0.10679953  0.06078002    -0.35000
N190        N  0.73793859  0.07762850  0.01532125    -0.55600
C191        C  0.77244818  0.12640197  0.95313459     0.28500
C192        C  0.74808781  0.09474190  0.95314633     0.28500
C193        C  0.77046649  0.12915651  0.07717008     0.28500
C194        C  0.74641944  0.09635566  0.07724218     0.28500
C195        C  0.79447664  0.14556726  0.99163485     0.37200
C196        C  0.79364345  0.14667051  0.03937821     0.37200
C197        C  0.73077053  0.06252368  0.99127384     0.37200
C198        C  0.73017901  0.06275811  0.03898285     0.37200
C199        C  0.76499005  0.12793880  0.92502973    -0.20300
C200        C  0.74960591  0.10808791  0.92507099    -0.20300
C201        C  0.76211166  0.13252825  0.10453251    -0.20300
C202        C  0.74699737  0.11180300  0.10459860    -0.20300
C203        C  0.81095730  0.15949512  0.00080183    -0.21400
C204        C  0.81047347  0.16006446  0.03105333    -0.21400
C205        C  0.71830902  0.03813594  0.99966428    -0.21400
C206        C  0.71796726  0.03822537  0.02990098    -0.21400
C207        C  0.78871009  0.14308564  0.96199363    -0.16700
C208        C  0.73430341  0.07189020  0.96183160    -0.16700
C209        C  0.73293861  0.07265029  0.06858398    -0.16700
C210        C  0.78692905  0.14565639  0.06865752    -0.16700
H211        H  0.77008879  0.14181073  0.90630247     0.16200
H212        H  0.74060855  0.10386480  0.90642405     0.16200
H213        H  0.76645115  0.14829778  0.12264319     0.16200
H214        H  0.73745362  0.10863297  0.12270614     0.16200
H215        H  0.82201692  0.16885481  0.98713212     0.14500
H216        H  0.82113849  0.16992062  0.04527055     0.14500
H217        H  0.71015147  0.02220236  0.98546807     0.14500
H218        H  0.70948694  0.02237843  0.04360680     0.14500
H219        H  0.76558973  0.09683173  0.99074700     0.27700
H220        H  0.76506111  0.09684336  0.04072164     0.27700
N221        N  0.25581144  0.13529022  0.44643210    -0.35000
N222        N  0.23430754  0.17093295  0.49137983    -0.55600
N223        N  0.25673521  0.14060536  0.53662344    -0.35000
N224        N  0.27964579  0.10844443  0.49170142    -0.55600
C225        C  0.24561755  0.15552724  0.42917222     0.28500
C226        C  0.26927496  0.12209495  0.42936068     0.28500
C227        C  0.24674357  0.16204184  0.55320157     0.28500
C228        C  0.27091059  0.13000318  0.55338896     0.28500
C229        C  0.22403941  0.17805123  0.46742591     0.37200
C230        C  0.22416469  0.17976957  0.51515413     0.37200
C231        C  0.28646696  0.09145665  0.46833201     0.37200
C232        C  0.28696677  0.09443670  0.51605685     0.37200
C233        C  0.25254581  0.15483887  0.40065640    -0.20300
C234        C  0.26743965  0.13377157  0.40077683    -0.20300
C235        C  0.25461448  0.16498232  0.58092111    -0.20300
C236        C  0.26988764  0.14484035  0.58102087    -0.20300
C237        C  0.20747862  0.19220261  0.47601392    -0.21400
C238        C  0.20754741  0.19322417  0.50626283    -0.21400
C239        C  0.29842461  0.06693148  0.47786821    -0.21400
C240        C  0.29873014  0.06879298  0.50809691    -0.21400
C241        C  0.22958068  0.17307740  0.43784421    -0.16700
C242        C  0.28270545  0.09869968  0.43843763    -0.16700
C243        C  0.28391096  0.10539363  0.54532557    -0.16700
C244        C  0.23001521  0.17717048  0.54474900    -0.16700
H245        H  0.24731939  0.16795540  0.38162431     0.16200
H246        H  0.27589594  0.12762618  0.38188573     0.16200
H247        H  0.24973517  0.17977713  0.59930789     0.16200
H248        H  0.27901689  0.14109086  0.59954366     0.16200
H249        H  0.19646708  0.20084897  0.46195918     0.14500
H250        H  0.19665613  0.20292329  0.52010187     0.14500
H251        H  0.30616384  0.04956817  0.46445024     0.14500
H252        H  0.30678439  0.05316418  0.52254832     0.14500
H253        H  0.25248059  0.12805480  0.46776399     0.27700
H254        H  0.25274852  0.13037763  0.51652219     0.27700
N255        N  0.74003333  0.35333139  0.55643956    -0.35000
N256        N  0.76314260  0.32669841  0.50977851    -0.55600
N257        N  0.73855915  0.35498624  0.46576898    -0.35000
N258        N  0.71649051  0.38456793  0.51238416    -0.55600
C259        C  0.75480884  0.34353306  0.57234638     0.28500
C260        C  0.73001980  0.37400991  0.57374479     0.28500
C261        C  0.75288519  0.34592037  0.44845001     0.28500
C262        C  0.72793785  0.37592469  0.44985079     0.28500
C263        C  0.77143768  0.31212215  0.53302699     0.37200
C264        C  0.77062889  0.31301401  0.48533915     0.37200
C265        C  0.70661367  0.39176552  0.53679815     0.37200
C266        C  0.70575280  0.39247473  0.48915692     0.37200
C267        C  0.75393654  0.35762169  0.60028073    -0.20300
C268        C  0.73828780  0.37674668  0.60118461    -0.20300
C269        C  0.75110931  0.36069458  0.42100071    -0.20300
C270        C  0.73541035  0.37965262  0.42190401    -0.20300
C271        C  0.78422894  0.28900205  0.52333133    -0.21400
C272        C  0.78374994  0.28961855  0.49309924    -0.21400
C273        C  0.68959357  0.40453970  0.52906092    -0.21400
C274        C  0.68902519  0.40488447  0.49885190    -0.21400
C275        C  0.76882072  0.32151385  0.56275802    -0.16700
C276        C  0.71324339  0.38948046  0.56593554    -0.16700
C277        C  0.71131936  0.39086178  0.45937198    -0.16700
C278        C  0.76715555  0.32369059  0.45625106    -0.16700
H279        H  0.76358763  0.35451203  0.61820996     0.16200
H280        H  0.73357098  0.39111013  0.61994302     0.16200
H281        H  0.76016215  0.35808889  0.40218658     0.16200
H282        H  0.73012151  0.39452917  0.40396646     0.16200
H283        H  0.79327743  0.27386710  0.53664047     0.14500
H284        H  0.79239712  0.27508600  0.47851973     0.14500
H285        H  0.67880836  0.41316355  0.54365237     0.14500
H286        H  0.67770497  0.41376311  0.48556548     0.14500
H287        H  0.73605456  0.34395535  0.53607763     0.27700
H288        H  0.73524798  0.34489078  0.48611976     0.27700
C289        C  0.32167010  0.07759458  0.38563342     0.14200
C290        C  0.31409046  0.05098819  0.36940381     0.01200
C291        C  0.29637669  0.03942015  0.37663634     0.16200
C292        C  0.28627229  0.05467767  0.39929773     0.25600
C293        C  0.29377226  0.08154969  0.41521793    -0.40700
C294        C  0.31162864  0.09263449  0.40845959     0.32600
C295        C  0.32428427  0.03649010  0.34401126     0.01300
F296        F  0.28866220  0.01401328  0.36112824    -0.13100
F297        F  0.31917725  0.11841936  0.42368199    -0.13600
C298        C  0.33063416  0.00338862  0.34462234     0.16200
C299        C  0.34008328  0.98991088  0.32032426     0.25600
C300        C  0.34298468  0.00915915  0.29494743    -0.40700
C301        C  0.33658558  0.04216238  0.29433320     0.32600
C302        C  0.32746728  0.05579597  0.31871994     0.14300
F303        F  0.32771237  0.98422492  0.36878094    -0.13000
F304        F  0.33917606  0.06119125  0.26997732    -0.13600
F305        F  0.35433160  0.46610861  0.32367415    -0.15800
F306        F  0.32133126  0.08767469  0.31740432    -0.14400
F307        F  0.33880078  0.08903832  0.37925826    -0.14400
F308        F  0.26907500  0.04349759  0.40556983    -0.15800
C309        C  0.43977330  0.34955343  0.29279885     0.14200
C310        C  0.43228844  0.36116360  0.26631391     0.01200
C311        C  0.43906570  0.34892581  0.23944711     0.16200
C312        C  0.45300111  0.32496498  0.23895538     0.25600
C313        C  0.46039802  0.31257528  0.26549187    -0.40700
C314        C  0.45369032  0.32545965  0.29246973     0.32600
C315        C  0.41723692  0.38582601  0.26633307     0.01300
F316        F  0.43209974  0.36022782  0.21359015    -0.13100
F317        F  0.46050293  0.31476359  0.31862702    -0.13600
C318        C  0.42120123  0.42001019  0.26772408     0.16200
C319        C  0.40719546  0.44348002  0.26377020     0.25600
C320        C  0.38900154  0.43300829  0.25830172    -0.40700
C321        C  0.38496594  0.39868543  0.25838868     0.32600
C322        C  0.39898885  0.37530073  0.26235291     0.14300
F323        F  0.43880586  0.43059016  0.27140491    -0.13000
F324        F  0.36749142  0.38779483  0.25389915    -0.13600
F325        F  0.41171761  0.47628155  0.26317145    -0.15800
F326        F  0.39488792  0.34230323  0.26133518    -0.14400
F327        F  0.43344353  0.36131454  0.31899343    -0.14400
F328        F  0.45907934  0.31378355  0.21241057    -0.15800
C329        C  0.43539351  0.14110917  0.23309234     0.14200
C330        C  0.43419107  0.11631956  0.25477543     0.01200
C331        C  0.44598189  0.11792783  0.27931384     0.16200
C332        C  0.45871301  0.14404844  0.28214973     0.25600
C333        C  0.45991392  0.16890024  0.26038228    -0.40700
C334        C  0.44814340  0.16703314  0.23578081     0.32600
C335        C  0.42033651  0.08932168  0.25182176     0.01300
F336        F  0.44545795  0.09375209  0.30016221    -0.13100
F337        F  0.44873753  0.19066257  0.21445024    -0.13600
C338        C  0.42024762  0.06856915  0.22678246     0.16200
C339        C  0.40638734  0.04471283  0.22294434     0.25600
C340        C  0.39246535  0.04093914  0.24423601    -0.40700
C341        C  0.39277083  0.06123845  0.26956043     0.32600
C342        C  0.40655061  0.08529729  0.27326347     0.14300
F343        F  0.43372806  0.07120499  0.20617635    -0.13000
F344        F  0.37939017  0.05859571  0.29029761    -0.13600
F345        F  0.40686111  0.02464823  0.19879837    -0.15800
F346        F  0.40610181  0.10542152  0.29736489    -0.14400
F347        F  0.42393108  0.14054464  0.20947464    -0.14400
F348        F  0.47029265  0.14433846  0.30561616    -0.15800
C349        C  0.68005933  0.47505910  0.34692024     0.14200
C350        C  0.67050107  0.45236144  0.36485254     0.01200
C351        C  0.65255261  0.44289341  0.35692973     0.16200
C352        C  0.64476529  0.45402079  0.33057935     0.25600
C353        C  0.65449874  0.47606028  0.31206533    -0.40700
C354        C  0.67200864  0.48733465  0.32118116     0.32600
C355        C  0.67971028  0.43682052  0.39056167     0.01300
F356        F  0.64269105  0.42203032  0.37439914    -0.13100
F357        F  0.68156407  0.50989280  0.30497337    -0.13600
C358        C  0.68824962  0.45656426  0.41233040     0.16200
C359        C  0.69817970  0.44164156  0.43514182     0.25600
C360        C  0.69951167  0.40678847  0.43674566    -0.40700
C361        C  0.69041204  0.38703252  0.41575211     0.32600
C362        C  0.68074298  0.40187338  0.39269279     0.14300
F363        F  0.68707356  0.49029245  0.41138369    -0.13000
F364        F  0.69130868  0.35330115  0.41725181    -0.13600
F365        F  0.70686708  0.46116004  0.45530537    -0.15800
F366        F  0.67303662  0.38205588  0.37174460    -0.14400
F367        F  0.69757778  0.48419973  0.35354315    -0.14400
F368        F  0.62818516  0.44137489  0.32256981    -0.15800
C369        C  0.71503272  0.02244469  0.13362789     0.14200
C370        C  0.69672473  0.03339642  0.13558548     0.01200
C371        C  0.69020814  0.05661617  0.11494709     0.16200
C372        C  0.70192005  0.06914053  0.09304665     0.25600
C373        C  0.72036427  0.05878446  0.09153394    -0.40700
C374        C  0.72677815  0.03510809  0.11181203     0.32600
C375        C  0.68487156  0.02268959  0.16049740     0.01300
F376        F  0.67251429  0.06729377  0.11618133    -0.13100
F377        F  0.74446322  0.02444084  0.11052821    -0.13600
C378        C  0.68038099  0.04556540  0.18268634     0.16200
C379        C  0.66945335  0.03598572  0.20656188     0.25600
C380        C  0.66168896  0.00360033  0.20813526    -0.40700
C381        C  0.66725849  0.98007928  0.18655565     0.32600
C382        C  0.67864721  0.98968148  0.16298238     0.14300
F383        F  0.69863652  0.55884612  0.18857502    -0.13000
F384        F  0.66273438  0.94743856  0.18870958    -0.13600
F385        F  0.67551156  0.54190190  0.23239570    -0.15800
F386        F  0.68354954  0.96669286  0.14243324    -0.14400
F387        F  0.72166569  0.00026089  0.15345122    -0.14400
F388        F  0.69536987  0.09175783  0.07352668    -0.15800
C389        C  0.56122627  0.13633697  0.23952252     0.14200
C390        C  0.56306756  0.11564882  0.26424169     0.01200
C391        C  0.55147984  0.12036487  0.28862441     0.16200
C392        C  0.53837313  0.14577714  0.28850109     0.25600
C393        C  0.53662815  0.16688280  0.26387289    -0.40700
C394        C  0.54811481  0.16171090  0.23929164     0.32600
C395        C  0.57736868  0.08962329  0.26467013     0.01300
F396        F  0.55272256  0.10003886  0.31240493    -0.13100
F397        F  0.54705120  0.18177830  0.21532343    -0.13600
C398        C  0.59179287  0.09121769  0.28528520     0.16200
C399        C  0.60604358  0.06786659  0.28431862     0.25600
C400        C  0.60604132  0.04293618  0.26263347    -0.40700
C401        C  0.59157871  0.04119061  0.24218455     0.32600
C402        C  0.57720655  0.06411247  0.24342902     0.14300
F403        F  0.59248182  0.11629377  0.30541300    -0.13000
F404        F  0.59159936  0.01758960  0.22066028    -0.13600
F405        F  0.62029793  0.07057809  0.30349504    -0.15800
F406        F  0.56324481  0.06173958  0.22365910    -0.14400
F407        F  0.57248837  0.13247993  0.21586286    -0.14400
F408        F  0.52720164  0.14930884  0.31230849    -0.15800
C409        C  0.60117960  0.37396854  0.25612162     0.14200
C410        C  0.58303719  0.38230060  0.26373278     0.01200
C411        C  0.57836210  0.41582555  0.26808249     0.16200
C412        C  0.59157217  0.44085338  0.26440210     0.25600
C413        C  0.60968135  0.43273015  0.25617071    -0.40700
C414        C  0.61444605  0.39899680  0.25244066     0.32600
C415        C  0.56856174  0.35644751  0.26465526     0.01300
F416        F  0.56081740  0.42433964  0.27501522    -0.13100
F417        F  0.63198428  0.39025159  0.24568299    -0.13600
C418        C  0.56271489  0.34268803  0.29147973     0.16200
C419        C  0.54842815  0.31911160  0.29203239     0.25600
C420        C  0.53969887  0.30907107  0.26565181    -0.40700
C421        C  0.54575803  0.32314730  0.23881169     0.32600
C422        C  0.56002784  0.34649609  0.23841313     0.14300
F423        F  0.57085606  0.35213624  0.31710747    -0.13000
F424        F  0.53779368  0.31470111  0.21276934    -0.13600
F425        F  0.54324189  0.30612271  0.31835727    -0.15800
F426        F  0.56537912  0.35988239  0.21231189    -0.14400
F427        F  0.60595685  0.34161094  0.25200162    -0.14400
F428        F  0.58644203  0.47312033  0.26776369    -0.15800
C429        C  0.81741515  0.30360736  0.33837802     0.14200
C430        C  0.81692259  0.28374476  0.36361124     0.01200
C431        C  0.82798849  0.25525161  0.36495908     0.16200
C432        C  0.83973824  0.24693196  0.34154026     0.25600
C433        C  0.84057762  0.26715701  0.31597508    -0.40700
C434        C  0.82892099  0.29539760  0.31487740     0.32600
C435        C  0.80471674  0.29298024  0.38836928     0.01300
F436        F  0.82773686  0.23581309  0.38940029    -0.13100
F437        F  0.82890968  0.31571350  0.29097998    -0.13600
C438        C  0.78955127  0.27283209  0.39561469     0.16200
C439        C  0.77726182  0.28283188  0.41767117     0.25600
C440        C  0.78012068  0.31289743  0.43287724    -0.40700
C441        C  0.79541663  0.33280103  0.42597257     0.32600
C442        C  0.80761695  0.32296589  0.40379119     0.14300
F443        F  0.78639651  0.24399114  0.38073061    -0.13000
F444        F  0.79835254  0.36192714  0.44054738    -0.13600
F445        F  0.76248604  0.26341830  0.42406956    -0.15800
F446        F  0.82226782  0.34267435  0.39729839    -0.14400
F447        F  0.80661203  0.33106847  0.33642997    -0.14400
F448        F  0.85016326  0.21936064  0.34477724    -0.15800
C449        C  0.84672463  0.21079330  0.16353731     0.14200
C450        C  0.82813206  0.21783943  0.15784451     0.01200
C451        C  0.81908015  0.24135820  0.17562832     0.16200
C452        C  0.82820296  0.25654608  0.19927124     0.25600
C453        C  0.84635205  0.24726193  0.20678518    -0.40700
C454        C  0.85566677  0.22485121  0.18796701     0.32600
C455        C  0.81790775  0.19944337  0.13446934     0.01300
F456        F  0.80103952  0.24840113  0.17110999    -0.13100
F457        F  0.87301820  0.21462777  0.19396546    -0.13600
C458        C  0.81748815  0.16433800  0.13444399     0.16200
C459        C  0.80741123  0.14691123  0.11309272     0.25600
C460        C  0.79743861  0.16421179  0.09158914    -0.40700
C461        C  0.79776438  0.19921126  0.09155631     0.32600
C462        C  0.80798284  0.21669507  0.11271016     0.14300
F463        F  0.82650170  0.14688949  0.15553401    -0.13000
F464        F  0.78816362  0.21638741  0.07095569    -0.13600
F465        F  0.80738648  0.11309235  0.11331079    -0.15800
F466        F  0.80836036  0.25048618  0.11172301    -0.14400
F467        F  0.85612425  0.18942815  0.14584765    -0.14400
F468        F  0.81897623  0.27974059  0.21530718    -0.15800
C469        C  0.19450504  0.17804310  0.37652251     0.14200
C470        C  0.19541309  0.21193552  0.36891003     0.01200
C471        C  0.20735383  0.23323091  0.38445581     0.16200
C472        C  0.21844473  0.22067392  0.40701653     0.25600
C473        C  0.21768179  0.18672091  0.41427701    -0.40700
C474        C  0.20557313  0.16554078  0.39906353     0.32600
C475        C  0.18418127  0.22479296  0.34430547     0.01300
F476        F  0.20856151  0.26596681  0.37727182    -0.13100
F477        F  0.20447844  0.13277335  0.40618844    -0.13600
C478        C  0.17042983  0.24853127  0.34939588     0.16200
C479        C  0.15924832  0.25959739  0.32628887     0.25600
C480        C  0.16193917  0.24765577  0.29714164    -0.40700
C481        C  0.17557932  0.22296628  0.29268001     0.32600
C482        C  0.18666901  0.21214435  0.31581025     0.14300
F483        F  0.16717505  0.25974279  0.37718892    -0.13000
F484        F  0.17778534  0.20811443  0.26597137    -0.13600
F485        F  0.14504507  0.27978905  0.33349051    -0.15800
F486        F  0.19975583  0.18880762  0.31042325    -0.14400
F487        F  0.18277126  0.15715807  0.36224775    -0.14400
F488        F  0.23010092  0.24145237  0.42155363    -0.15800
C489        C  0.08013521  0.33614060  0.23509060     0.14200
C490        C  0.08460237  0.36898946  0.24303895     0.01200
C491        C  0.10254369  0.37636671  0.25261310     0.16200
C492        C  0.11574997  0.35118209  0.25463663     0.25600
C493        C  0.11119649  0.31810644  0.24727246    -0.40700
C494        C  0.09328555  0.31092600  0.23719493     0.32600
C495        C  0.07031175  0.39520362  0.24274461     0.01300
F496        F  0.10729364  0.40809691  0.25979661    -0.13100
F497        F  0.08820879  0.27929615  0.23036020    -0.13600
C498        C  0.06549072  0.41142194  0.26905264     0.16200
C499        C  0.05175418  0.43566664  0.26929241     0.25600
C500        C  0.04239709  0.44416822  0.24311600    -0.40700
C501        C  0.04738432  0.42796252  0.21665974     0.32600
C502        C  0.06118110  0.40364766  0.21653791     0.14300
F503        F  0.07382744  0.40316230  0.29478453    -0.13000
F504        F  0.03883731  0.43531467  0.19090377    -0.13600
F505        F  0.04765871  0.45069081  0.29533598    -0.15800
F506        F  0.06573082  0.38847248  0.19075954    -0.14400
F507        F  0.06281500  0.32824901  0.22626062    -0.14400
F508        F  0.13309315  0.35931493  0.26312722    -0.15800
C509        C  0.06265896  0.11880278  0.26020573     0.14200
C510        C  0.06417512  0.13950476  0.23536623     0.01200
C511        C  0.05225712  0.13442238  0.21140477     0.16200
C512        C  0.03923151  0.10870214  0.21210831     0.25600
C513        C  0.03770078  0.08800386  0.23704869    -0.40700
C514        C  0.04943057  0.09360236  0.26119838     0.32600
C515        C  0.07843095  0.16590821  0.23470227     0.01300
F516        F  0.05305604  0.15464945  0.18750234    -0.13100
F517        F  0.04856487  0.07395923  0.28547052    -0.13600
C518        C  0.09173698  0.16678796  0.21209500     0.16200
C519        C  0.10651577  0.18917168  0.21373933     0.25600
C520        C  0.10824328  0.21040608  0.23814325    -0.40700
C521        C  0.09457324  0.21058255  0.26000105     0.32600
C522        C  0.07966752  0.18881803  0.25811926     0.14300
F523        F  0.09096573  0.14483624  0.18930211    -0.13000
F524        F  0.09583992  0.23163071  0.28342516    -0.13600
F525        F  0.11960925  0.18895352  0.19238394    -0.15800
F526        F  0.06660689  0.18960013  0.27953513    -0.14400
F527        F  0.07438839  0.12237849  0.28329345    -0.14400
F528        F  0.02793281  0.10444165  0.18857015    -0.15800
C529        C  0.92305542  0.18683124  0.24752159     0.14200
C530        C  0.91775872  0.15318104  0.24870379     0.01200
C531        C  0.89929076  0.14508597  0.25453224     0.16200
C532        C  0.88638708  0.17027295  0.25970961     0.25600
C533        C  0.89178536  0.20392485  0.25917357    -0.40700
C534        C  0.91015575  0.21201597  0.25263517     0.32600
C535        C  0.93172377  0.12659221  0.24563838     0.01300
F536        F  0.89378075  0.11275204  0.25508580    -0.13100
F537        F  0.91576462  0.24429224  0.25226341    -0.13600
C538        C  0.93581873  0.10622903  0.26980582     0.16200
C539        C  0.94960659  0.08213391  0.26776537     0.25600
C540        C  0.95963251  0.07781556  0.24137131    -0.40700
C541        C  0.95523235  0.09791893  0.21694306     0.32600
C542        C  0.94144648  0.12217889  0.21914203     0.14300
F543        F  0.92678063  0.11037252  0.29576982    -0.13000
F544        F  0.96457453  0.09480535  0.19116061    -0.13600
F545        F  0.95312689  0.06311187  0.29179401    -0.15800
F546        F  0.93759489  0.14145997  0.19541417    -0.14400
F547        F  0.94087637  0.19523689  0.24243954    -0.14400
F548        F  0.86855431  0.16184649  0.26468125    -0.15800
C549        C  0.93356959  0.41861629  0.23518843     0.14200
C550        C  0.93650625  0.38953048  0.25177270     0.01200
C551        C  0.95325620  0.38593133  0.26706392     0.16200
C552        C  0.96660031  0.41111033  0.26620112     0.25600
C553        C  0.96367687  0.43989848  0.24939691    -0.40700
C554        C  0.94714181  0.44336842  0.23371511     0.32600
C555        C  0.92187469  0.36363877  0.25410761     0.01300
F556        F  0.95680597  0.35780444  0.28257359    -0.13100
F557        F  0.94385625  0.47135945  0.21785698    -0.13600
C558        C  0.91376255  0.34950544  0.22878598     0.16200
C559        C  0.89949762  0.32601387  0.23130810     0.25600
C560        C  0.89334278  0.31557367  0.25925215    -0.40700
C561        C  0.90218580  0.32876021  0.28451283     0.32600
C562        C  0.91584434  0.35305869  0.28194265     0.14300
F563        F  0.91975160  0.35829097  0.20153987    -0.13000
F564        F  0.89803685  0.31765370  0.31196801    -0.13600
F565        F  0.89148739  0.31421138  0.20636614    -0.15800
F566        F  0.92298746  0.36668302  0.30689108    -0.14400
F567        F  0.91731112  0.42358814  0.22119426    -0.14400
F568        F  0.98260650  0.40699054  0.28114840    -0.15800
C569        C  0.18739638  0.29404959  0.08697238     0.14200
C570        C  0.18257187  0.31345419  0.11167497     0.01200
C571        C  0.18820969  0.34700907  0.11284443     0.16200
C572        C  0.19832523  0.36092366  0.08974287     0.25600
C573        C  0.20362691  0.34129223  0.06548726    -0.40700
C574        C  0.19809501  0.30768842  0.06432949     0.32600
C575        C  0.17236022  0.29866934  0.13684450     0.01300
F576        F  0.18446885  0.36608360  0.13687971    -0.13100
F577        F  0.20330230  0.28795186  0.04145116    -0.13600
C578        C  0.17907961  0.27008589  0.15109649     0.16200
C579        C  0.17063487  0.25840260  0.17678841     0.25600
C580        C  0.15545273  0.27526415  0.18888100    -0.40700
C581        C  0.14826409  0.30298465  0.17399004     0.32600
C582        C  0.15655507  0.31440953  0.14809898     0.14300
F583        F  0.19439119  0.25442147  0.14103463    -0.13000
F584        F  0.13391510  0.32035780  0.18539428    -0.13600
F585        F  0.17752799  0.23095260  0.19021665    -0.15800
F586        F  0.14939926  0.34145644  0.13439411    -0.14400
F587        F  0.18174805  0.26187583  0.08476006    -0.14400
F588        F  0.20331861  0.39349603  0.09132714    -0.15800
C589        C  0.29083770  0.46644235  0.10697536     0.14200
C590        C  0.30737995  0.44965573  0.11269636     0.01200
C591        C  0.31298446  0.42367667  0.09397087     0.16200
C592        C  0.30210183  0.41436648  0.06990294     0.25600
C593        C  0.28541794  0.43075075  0.06446195    -0.40700
C594        C  0.27985334  0.45689664  0.08305817     0.32600
C595        C  0.31880058  0.45900623  0.13831264     0.01300
F596        F  0.32893321  0.40721518  0.09921252    -0.13100
F597        F  0.26361932  0.47263749  0.07830966    -0.13600
C598        C  0.31878681  0.43929003  0.16366319     0.16200
C599        C  0.32990089  0.44775752  0.18769495     0.25600
C600        C  0.34161760  0.47604814  0.18690553    -0.40700
C601        C  0.34109987  0.49617269  0.16121058     0.32600
C602        C  0.32987056  0.48750033  0.13731289     0.14300
F603        F  0.30784979  0.41187634  0.16521762    -0.13000
F604        F  0.36259030  0.00406048  0.15406585    -0.13600
F605        F  0.32915799  0.42810593  0.21199112    -0.15800
F606        F  0.32984862  0.50701986  0.11291783    -0.14400
F607        F  0.28515554  0.49146981  0.12498205    -0.14400
F608        F  0.30750849  0.38869983  0.05239750    -0.15800
C609        C  0.32055649  0.44296162  0.81212838     0.14200
C610        C  0.32357125  0.45667014  0.84021536     0.01200
C611        C  0.33813391  0.47945244  0.84411410     0.16200
C612        C  0.34885205  0.48968546  0.81993786     0.25600
C613        C  0.34516492  0.47723431  0.79150441    -0.40700
C614        C  0.33130442  0.45285934  0.78813155     0.32600
C615        C  0.31109177  0.44773495  0.86499712     0.01300
F616        F  0.33116148  0.00957600  0.86737113    -0.13100
F617        F  0.32818823  0.43833731  0.76151403    -0.13600
C618        C  0.31775417  0.43081886  0.88985256     0.16200
C619        C  0.30568669  0.42081512  0.91232541     0.25600
C620        C  0.28675706  0.42813288  0.91065547    -0.40700
C621        C  0.28021081  0.44576195  0.88603765     0.32600
C622        C  0.29221109  0.45513237  0.86332379     0.14300
F623        F  0.33586754  0.42302668  0.89188704    -0.13000
F624        F  0.26211671  0.45370865  0.88391565    -0.13600
F625        F  0.31243211  0.40337399  0.93549352    -0.15800
F626        F  0.28539998  0.47158740  0.83963052    -0.14400
F627        F  0.30711223  0.41989006  0.80792113    -0.14400
F628        F  0.35147933  0.03153900  0.82034738    -0.15800
C629        C  0.34151977  0.02838744  0.63574785     0.14200
C630        C  0.32524023  0.04631291  0.64027057     0.01200
C631        C  0.31909023  0.05202067  0.66906420     0.16200
C632        C  0.32894618  0.03977049  0.69309488     0.25600
C633        C  0.34484957  0.01989170  0.68897991    -0.40700
C634        C  0.35138898  0.01570120  0.65973721     0.32600
C635        C  0.31503471  0.06061723  0.61515535     0.01300
F636        F  0.30391295  0.07091619  0.67397343    -0.13100
F637        F  0.36791278  0.00147732  0.65405878    -0.13600
C638        C  0.29730743  0.04892765  0.60833727     0.16200
C639        C  0.28726649  0.06341756  0.58547010     0.25600
C640        C  0.29480103  0.08982898  0.56921090    -0.40700
C641        C  0.31250382  0.10158970  0.57597519     0.32600
C642        C  0.32258953  0.08702785  0.59880945     0.14300
F643        F  0.28977178  0.02345169  0.62385881    -0.13000
F644        F  0.31981540  0.12752195  0.56077914    -0.13600
F645        F  0.27014930  0.05182502  0.57918233    -0.15800
F646        F  0.33950276  0.09925953  0.60554762    -0.14400
F647        F  0.34808125  0.02375133  0.60800300    -0.14400
F648        F  0.32994698  0.55515580  0.71769452    -0.15800
C649        C  0.43951548  0.34681317  0.72691736     0.14200
C650        C  0.43600236  0.36847411  0.75057583     0.01200
C651        C  0.44616815  0.36501145  0.77673128     0.16200
C652        C  0.45986511  0.34056737  0.77900598     0.25600
C653        C  0.46360259  0.31905560  0.75511638    -0.40700
C654        C  0.45313470  0.32242460  0.72909008     0.32600
C655        C  0.42205192  0.39516274  0.74746288     0.01300
F656        F  0.44318791  0.38598226  0.79977444    -0.13100
F657        F  0.45592762  0.30195315  0.70562759    -0.13600
C658        C  0.40626550  0.39560006  0.76538750     0.16200
C659        C  0.39299943  0.42055534  0.76190053     0.25600
C660        C  0.39522890  0.44518729  0.74022640    -0.40700
C661        C  0.41100145  0.44477709  0.72233803     0.32600
C662        C  0.42433564  0.42003919  0.72599451     0.14300
F663        F  0.40351373  0.37141547  0.78578232    -0.13000
F664        F  0.41374239  0.46895093  0.70192853    -0.13600
F665        F  0.37774310  0.42019266  0.77918168    -0.15800
F666        F  0.43967145  0.42064099  0.70889736    -0.14400
F667        F  0.42959819  0.34914037  0.70165386    -0.14400
F668        F  0.46979223  0.33866240  0.80427061    -0.15800
C669        C  0.42622748  0.06837677  0.76356067     0.14200
C670        C  0.42252851  0.10267212  0.76328404     0.01200
C671        C  0.40423520  0.11363977  0.76261524     0.16200
C672        C  0.38982280  0.09064597  0.76059019     0.25600
C673        C  0.39348272  0.05623118  0.75920876    -0.40700
C674        C  0.41180162  0.04525536  0.76165008     0.32600
C675        C  0.43766501  0.12724839  0.76238817     0.01300
F676        F  0.40040758  0.14673300  0.76250343    -0.13100
F677        F  0.41589582  0.01233957  0.76004752    -0.13600
C678        C  0.44752924  0.13254889  0.73618156     0.16200
C679        C  0.46101494  0.15749325  0.73468841     0.25600
C680        C  0.46496658  0.17737043  0.75956921    -0.40700
C681        C  0.45510320  0.17151371  0.78593998     0.32600
C682        C  0.44155813  0.14681425  0.78720766     0.14300
F683        F  0.44377816  0.11400357  0.71182804    -0.13000
F684        F  0.45827009  0.19002393  0.81053334    -0.13600
F685        F  0.47015925  0.16209084  0.70891127    -0.15800
F686        F  0.43213172  0.14205099  0.81271041    -0.14400
F687        F  0.44385398  0.05736926  0.76476004    -0.14400
F688        F  0.37228629  0.10205068  0.75888909    -0.15800
C689        C  0.69140619  0.03832717  0.83920270     0.14200
C690        C  0.68909835  0.02392554  0.86693646     0.01200
C691        C  0.67489169  0.00104240  0.87157092     0.16200
C692        C  0.66280554  0.99273969  0.84875445     0.25600
C693        C  0.66494571  0.00699446  0.82035501    -0.40700
C694        C  0.67941841  0.03027287  0.81626577     0.32600
C695        C  0.70046938  0.03513247  0.89179118     0.01300
F696        F  0.67228561  0.98766519  0.89872160    -0.13100
F697        F  0.68158400  0.04636799  0.79019562    -0.13600
C698        C  0.69396639  0.06044475  0.91045083     0.16200
C699        C  0.70484650  0.07193146  0.93369459     0.25600
C700        C  0.72229963  0.05812272  0.93847279    -0.40700
C701        C  0.72876299  0.03265985  0.91990741     0.32600
C702        C  0.71787241  0.02119280  0.89661329     0.14300
F703        F  0.67723365  0.07439372  0.90570871    -0.13000
F704        F  0.74569888  0.01936370  0.92419229    -0.13600
F705        F  0.69861531  0.09707012  0.95110206    -0.15800
F706        F  0.72430437  0.99676268  0.87862245    -0.14400
F707        F  0.70487814  0.06124871  0.83467319    -0.14400
F708        F  0.64846484  0.97279570  0.85582974    -0.15800
C709        C  0.69483248  0.45416726  0.61918835     0.14200
C710        C  0.68202314  0.43536704  0.63548285     0.01200
C711        C  0.67906696  0.40171554  0.62790794     0.16200
C712        C  0.68926720  0.38681378  0.60533779     0.25600
C713        C  0.70227891  0.40546036  0.58960417    -0.40700
C714        C  0.70478266  0.43933244  0.59624568     0.32600
C715        C  0.67290892  0.44985479  0.66184525     0.01300
F716        F  0.66637730  0.38321660  0.64257133    -0.13100
F717        F  0.71718008  0.45774534  0.58088444    -0.13600
C718        C  0.66280731  0.47971949  0.66023626     0.16200
C719        C  0.65501206  0.49367612  0.68575337     0.25600
C720        C  0.65718314  0.47791646  0.71309131    -0.40700
C721        C  0.66690210  0.44769612  0.71448720     0.32600
C722        C  0.67482312  0.43401992  0.68923916     0.14300
F723        F  0.66053896  0.49536738  0.63401281    -0.13000
F724        F  0.66879571  0.43135925  0.74047811    -0.13600
F725        F  0.64468600  0.01969585  0.68444651    -0.15800
F726        F  0.68491123  0.40573824  0.69176473    -0.14400
F727        F  0.69826293  0.48647616  0.62625264    -0.14400
F728        F  0.68655925  0.35412090  0.59888558    -0.15800
C729        C  0.59198052  0.08797906  0.73293881     0.14200
C730        C  0.58356114  0.10111386  0.75840270     0.01200
C731        C  0.58945284  0.09014559  0.78614289     0.16200
C732        C  0.60353658  0.06677909  0.78853951     0.25600
C733        C  0.61249916  0.05431164  0.76316331    -0.40700
C734        C  0.60632787  0.06474241  0.73530169     0.32600
C735        C  0.56899408  0.12693061  0.75657287     0.01300
F736        F  0.58177796  0.10264345  0.81113540    -0.13100
F737        F  0.61444420  0.05314504  0.71038434    -0.13600
C738        C  0.55172925  0.12163365  0.76988095     0.16200
C739        C  0.53869299  0.14725476  0.77100538     0.25600
C740        C  0.54259011  0.17841200  0.75845228    -0.40700
C741        C  0.55957677  0.18340699  0.74429566     0.32600
C742        C  0.57274570  0.15797980  0.74359494     0.14300
F743        F  0.54749537  0.09153799  0.78170040    -0.13000
F744        F  0.56362832  0.21331896  0.73197726    -0.13600
F745        F  0.52206077  0.14137350  0.78362777    -0.15800
F746        F  0.58941743  0.16407052  0.73119408    -0.14400
F747        F  0.58624615  0.09755161  0.70579643    -0.14400
F748        F  0.60808744  0.05590424  0.81588768    -0.15800
C749        C  0.56687634  0.35059149  0.78601621     0.14200
C750        C  0.56823110  0.37431932  0.76345346     0.01200
C751        C  0.55620641  0.37216772  0.73923722     0.16200
C752        C  0.54319019  0.34640614  0.73746419     0.25600
C753        C  0.54193029  0.32245055  0.75998828    -0.40700
C754        C  0.55384327  0.32503687  0.78439633     0.32600
C755        C  0.58250596  0.40072267  0.76507928     0.01300
F756        F  0.55684428  0.39541398  0.71758557    -0.13100
F757        F  0.55318003  0.30239246  0.80654574    -0.13600
C758        C  0.59596775  0.40333656  0.74292727     0.16200
C759        C  0.60998046  0.42717776  0.74515794     0.25600
C760        C  0.61085394  0.44855010  0.76972549    -0.40700
C761        C  0.59741550  0.44596852  0.79186713     0.32600
C762        C  0.58328384  0.42240837  0.78947806     0.14300
F763        F  0.59587074  0.38206286  0.71959414    -0.13000
F764        F  0.59776970  0.46678247  0.81551694    -0.13600
F765        F  0.62305020  0.42857675  0.72381141    -0.15800
F766        F  0.57023012  0.42096220  0.81086357    -0.14400
F767        F  0.57851267  0.35171020  0.80940379    -0.14400
F768        F  0.53149005  0.34550033  0.71416470    -0.15800
C769        C  0.82260166  0.19265364  0.83665995     0.14200
C770        C  0.82512224  0.20740948  0.86434003     0.01200
C771        C  0.83564256  0.23656844  0.86659496     0.16200
C772        C  0.84421228  0.25024468  0.84169703     0.25600
C773        C  0.84246581  0.23474847  0.81365460    -0.40700
C774        C  0.83105110  0.20610302  0.81169746     0.32600
C775        C  0.81679513  0.19214043  0.89085112     0.01300
F776        F  0.83807283  0.25137704  0.89326792    -0.13100
F777        F  0.82847158  0.19032161  0.78547847    -0.13600
C778        C  0.82309437  0.16118271  0.90112927     0.16200
C779        C  0.81443246  0.14569037  0.92505465     0.25600
C780        C  0.79939082  0.16100531  0.93897361    -0.40700
C781        C  0.79346203  0.19239502  0.92925348     0.32600
C782        C  0.80208721  0.20784277  0.90532580     0.14300
F783        F  0.83750633  0.14587637  0.88773860    -0.13000
F784        F  0.77880623  0.20735407  0.94224790    -0.13600
F785        F  0.82039679  0.11542648  0.93421323    -0.15800
F786        F  0.79563443  0.23750341  0.89550891    -0.14400
F787        F  0.81196633  0.16496584  0.83382564    -0.14400
F788        F  0.85429923  0.27814048  0.84599560    -0.15800
C789        C  0.81197991  0.31494179  0.60925612     0.14200
C790        C  0.80659483  0.29136334  0.63037932     0.01200
C791        C  0.78915786  0.27639717  0.62830990     0.16200
C792        C  0.77707559  0.28537966  0.60571960     0.25600
C793        C  0.78226149  0.30957202  0.58501307    -0.40700
C794        C  0.79988324  0.32396487  0.58665625     0.32600
C795        C  0.81848197  0.28412223  0.65593618     0.01300
F796        F  0.78371835  0.25366699  0.64864487    -0.13100
F797        F  0.80506735  0.34757641  0.56694521    -0.13600
C798        C  0.81504684  0.30001188  0.68293270     0.16200
C799        C  0.82533043  0.29189805  0.70787141     0.25600
C800        C  0.83920602  0.26752786  0.70630971    -0.40700
C801        C  0.84302546  0.25233188  0.67897352     0.32600
C802        C  0.83268214  0.26057035  0.65393313     0.14300
F803        F  0.80158534  0.32328142  0.68513660    -0.13000
F804        F  0.85620764  0.22858262  0.67674330    -0.13600
F805        F  0.82182991  0.30815913  0.73355641    -0.15800
F806        F  0.83616563  0.24498785  0.62792293    -0.14400
F807        F  0.82866432  0.33004664  0.61119540    -0.14400
F808        F  0.76015693  0.27107332  0.60436968    -0.15800
C809        C  0.17740148  0.35020176  0.87861521     0.14200
C810        C  0.17915477  0.31700610  0.86897316     0.01200
C811        C  0.19239898  0.29639542  0.88219896     0.16200
C812        C  0.20410413  0.30914134  0.90396947     0.25600
C813        C  0.20283046  0.34267169  0.91256662    -0.40700
C814        C  0.18924918  0.36299037  0.90011583     0.32600
C815        C  0.16874753  0.30514517  0.84289896     0.01300
F816        F  0.19454447  0.26438619  0.87310119    -0.13100
F817        F  0.18759388  0.39527295  0.90870930    -0.13600
C818        C  0.17088799  0.32183821  0.81595290     0.16200
C819        C  0.16259167  0.30953168  0.79045810     0.25600
C820        C  0.15208978  0.28009521  0.79129168    -0.40700
C821        C  0.14923304  0.26408082  0.81839191     0.32600
C822        C  0.15761366  0.27642096  0.84407248     0.14300
F823        F  0.18169397  0.34939761  0.81406171    -0.13000
F824        F  0.13899298  0.23582228  0.81975543    -0.13600
F825        F  0.16495640  0.32630473  0.76477582    -0.15800
F826        F  0.15505375  0.26018394  0.86996405    -0.14400
F827        F  0.16437471  0.37033855  0.86682619    -0.14400
F828        F  0.21696957  0.28904830  0.91624469    -0.15800
C829        C  0.20797253  0.23498378  0.60101725     0.14200
C830        C  0.19537825  0.21341084  0.61487159     0.01200
C831        C  0.19397492  0.18024019  0.60500722     0.16200
C832        C  0.20511955  0.16873508  0.58200157     0.25600
C833        C  0.21780998  0.19017194  0.56842721    -0.40700
C834        C  0.21909386  0.22343155  0.57790325     0.32600
C835        C  0.18355585  0.22534673  0.63941940     0.01300
F836        F  0.18160004  0.15911283  0.61741515    -0.13100
F837        F  0.23128370  0.24449606  0.56499214    -0.13600
C838        C  0.17121357  0.25165282  0.63511554     0.16200
C839        C  0.15923076  0.26172560  0.65764125     0.25600
C840        C  0.15921137  0.24537066  0.68534725    -0.40700
C841        C  0.17213419  0.21942276  0.68950567     0.32600
C842        C  0.18410106  0.20967708  0.66695598     0.14300
F843        F  0.17029705  0.26702282  0.60853650    -0.13000
F844        F  0.17303528  0.20294615  0.71557623    -0.13600
F845        F  0.14767733  0.28699420  0.65127210    -0.15800
F846        F  0.19628226  0.18476038  0.67205628    -0.14400
F847        F  0.20975446  0.26701218  0.61030387    -0.14400
F848        F  0.20353959  0.13661900  0.57285978    -0.15800
C849        C  0.05899257  0.40414602  0.71460461     0.14200
C850        C  0.06510578  0.38829361  0.74026567     0.01200
C851        C  0.05765061  0.39760119  0.76761738     0.16200
C852        C  0.04419272  0.42243068  0.76933624     0.25600
C853        C  0.03776862  0.43814169  0.74357370    -0.40700
C854        C  0.04545193  0.42875194  0.71615776     0.32600
C855        C  0.07928275  0.36202221  0.73844256     0.01300
F856        F  0.06356995  0.38279880  0.79273392    -0.13100
F857        F  0.03994701  0.44334473  0.69069410    -0.13600
C858        C  0.09724725  0.36991765  0.72943156     0.16200
C859        C  0.11063160  0.34503259  0.72743125     0.25600
C860        C  0.10623593  0.31180432  0.73437661    -0.40700
C861        C  0.08827978  0.30405643  0.74375266     0.32600
C862        C  0.07488588  0.32894654  0.74558420     0.14300
F863        F  0.10187941  0.40188496  0.72307767    -0.13000
F864        F  0.08353255  0.27228669  0.75048717    -0.13600
F865        F  0.12803417  0.35358787  0.71956869    -0.15800
F866        F  0.05749615  0.32068520  0.75376638    -0.14400
F867        F  0.06594027  0.39533560  0.68790023    -0.23200
F868        F  0.03739027  0.43079590  0.79622702    -0.15800
C869        C  0.06408700  0.10552842  0.72736548     0.14200
C870        C  0.06524680  0.12766123  0.75137062     0.01200
C871        C  0.05256211  0.12473520  0.77456100     0.16200
C872        C  0.03880646  0.10022275  0.77363005     0.25600
C873        C  0.03747090  0.07821276  0.74937719    -0.40700
C874        C  0.05033510  0.08110871  0.72631553     0.32600
C875        C  0.07920413  0.15465742  0.75123007     0.01300
F876        F  0.05316298  0.14626820  0.79768696    -0.13100
F877        F  0.04986529  0.05989171  0.70296035    -0.13600
C878        C  0.07875687  0.17873765  0.72887234     0.16200
C879        C  0.09270511  0.20253794  0.72668128     0.25600
C880        C  0.10725360  0.20301052  0.74701296    -0.40700
C881        C  0.10745513  0.17977728  0.77007573     0.32600
C882        C  0.09347362  0.15567460  0.77220066     0.14300
F883        F  0.06488359  0.17885112  0.70885485    -0.13000
F884        F  0.12156597  0.17950167  0.78963908    -0.13600
F885        F  0.09223836  0.22485677  0.70426396    -0.15800
F886        F  0.09427897  0.13248638  0.79387377    -0.14400
F887        F  0.07642910  0.10747298  0.70494764    -0.14400
F888        F  0.02649564  0.09867203  0.79611650    -0.15800
C889        C  0.92111759  0.18293535  0.75882979     0.14200
C890        C  0.91994686  0.15630690  0.73882042     0.01200
C891        C  0.90478916  0.15399429  0.71968876     0.16200
C892        C  0.89039202  0.17698787  0.72184467     0.25600
C893        C  0.89116171  0.20252258  0.74295951    -0.40700
C894        C  0.90678364  0.20580432  0.76097658     0.32600
C895        C  0.93361444  0.12930053  0.74004423     0.01300
F896        F  0.90340263  0.12822937  0.70035243    -0.13100
F897        F  0.90765637  0.23015764  0.78179089    -0.13600
C898        C  0.93491995  0.10960198  0.76547895     0.16200
C899        C  0.94776515  0.08388216  0.76701664     0.25600
C900        C  0.95959046  0.07750097  0.74311061    -0.40700
C901        C  0.95808802  0.09714569  0.71746469     0.32600
C902        C  0.94520140  0.12285856  0.71601586     0.14300
F903        F  0.92350618  0.11501918  0.78870969    -0.13000
F904        F  0.96933454  0.09202522  0.69397159    -0.13600
F905        F  0.94835366  0.06485861  0.79168760    -0.15800
F906        F  0.94427182  0.14192710  0.69139753    -0.14400
F907        F  0.93581658  0.18591678  0.77711902    -0.14400
F908        F  0.87521387  0.17301674  0.70479587    -0.15800
C909        C  0.89965335  0.36561917  0.76627405     0.14200
C910        C  0.91605129  0.35958561  0.75081477     0.01200
C911        C  0.91877146  0.32835960  0.73757716     0.16200
C912        C  0.90548178  0.30321690  0.74028539     0.25600
C913        C  0.88905490  0.30894268  0.75613010    -0.40700
C914        C  0.88619739  0.34071409  0.76866154     0.32600
C915        C  0.93062742  0.38544295  0.74947148     0.01300
F916        F  0.93461533  0.32187803  0.72278272    -0.13100
F917        F  0.87022521  0.34796655  0.78278882    -0.13600
C918        C  0.94117453  0.39264981  0.77456383     0.16200
C919        C  0.95500988  0.41694834  0.77359292     0.25600
C920        C  0.95861839  0.43470112  0.74736432    -0.40700
C921        C  0.94793992  0.42731218  0.72217744     0.32600
C922        C  0.93411849  0.40285657  0.72326082     0.14300
F923        F  0.93818867  0.37577075  0.80002198    -0.13000
F924        F  0.95057273  0.44414884  0.69661318    -0.13600
F925        F  0.96495351  0.42279615  0.79840194    -0.15800
F926        F  0.92389959  0.39652495  0.69883242    -0.14400
F927        F  0.89666125  0.39577829  0.77899732    -0.14400
F928        F  0.90914890  0.27294855  0.72832340    -0.15800
O929        O  0.01706685  0.97488046  0.77285338    -0.70200
O930        O  0.97826014  0.53867232  0.77101532    -0.70400
O931        O  0.98010448  0.97266452  0.77104639    -0.70300
O932        O  0.01517420  0.54224841  0.77053921    -0.70300
O933        O  0.01578550  0.54135412  0.72272719    -0.70300
O934        O  0.98024021  0.97229936  0.72329233    -0.70300
O935        O  0.97883452  0.54045422  0.72326340    -0.70200
O936        O  0.01710429  0.97277379  0.72507246    -0.70400
V937        V  0.99792618  0.00714177  0.77044212     1.35200
V938        V  0.99731029  0.50745355  0.72349917     1.35200
C939        C  0.02355134  0.96274380  0.74924673     0.79000
C940        C  0.97204597  0.55067076  0.74724777     0.79100
C941        C  0.97392118  0.96071017  0.74722505     0.79000
C942        C  0.02157557  0.55376168  0.74673073     0.78900
C943        C  0.14534049  0.75453682  0.70900494     0.88100
C944        C  0.13257038  0.72488118  0.71536207    -0.52200
C945        C  0.12148706  0.72863050  0.73936946     0.11000
C946        C  0.12436346  0.76190467  0.75564177     0.21900
C947        C  0.13196484  0.78459314  0.70731309    -0.52900
C948        C  0.12110772  0.78824142  0.73185323     0.11100
C949        C  0.15590361  0.76073169  0.73781286    -0.52400
C950        C  0.14504867  0.76513831  0.76209470     0.11700
H951        H  0.13144149  0.70353802  0.70066443     0.16200
H952        H  0.11557676  0.76506598  0.77548787     0.01900
H953        H  0.13061311  0.80162434  0.68913680     0.16500
H954        H  0.17075890  0.76366822  0.73851752     0.16300
C955        C  0.85127411  0.75050650  0.78786674     0.88100
C956        C  0.86279227  0.72019799  0.77932263    -0.52200
C957        C  0.87284489  0.72388859  0.75432597     0.11000
C958        C  0.87019699  0.75767055  0.73910596     0.21900
C959        C  0.86511502  0.77987945  0.78852050    -0.52900
C960        C  0.87513931  0.78353201  0.76300628     0.11100
C961        C  0.83950232  0.75834893  0.76059267    -0.52400
C962        C  0.84929293  0.76178457  0.73509269     0.11700
H963        H  0.86411167  0.69845406  0.79339049     0.16200
H964        H  0.87803427  0.76044024  0.71824883     0.01900
H965        H  0.86681930  0.79632649  0.80733218     0.16500
H966        H  0.82486527  0.76330464  0.76132151     0.16300
C967        C  0.65144104  0.50491847  0.79336876     0.88100
C968        C  0.64048615  0.53629025  0.78628889    -0.52200
C969        C  0.62837312  0.53333506  0.76339673     0.11000
C970        C  0.62932757  0.99683424  0.74942932     0.21900
C971        C  0.63713293  0.97273861  0.79694768    -0.52900
C972        C  0.62556653  0.97078645  0.77326440     0.11100
C973        C  0.66122654  0.99419108  0.76553448    -0.52400
C974        C  0.64981042  0.99145864  0.74180472     0.11700
H975        H  0.64182005  0.55876149  0.79949131     0.16200
H976        H  0.61988670  0.99465005  0.73029831     0.01900
H977        H  0.63633388  0.95424572  0.81410712     0.16500
H978        H  0.67588205  0.98914772  0.76408114     0.16300
O979        O  0.48544545  0.71433139  0.72966200    -0.70200
O980        O  0.51957851  0.78696357  0.73206038    -0.70400
O981        O  0.52243289  0.72012691  0.73057055    -0.70300
O982        O  0.48273261  0.78095772  0.73001468    -0.70300
O983        O  0.48304308  0.78328624  0.77778845    -0.70300
O984        O  0.52040471  0.71627814  0.77820062    -0.70300
O985        O  0.51999822  0.78336632  0.77975995    -0.70200
O986        O  0.48362950  0.71651435  0.77732389    -0.70400
V987        V  0.50255093  0.75059758  0.73145906     1.35200
V988        V  0.50181232  0.74991514  0.77735985     1.35200
C989        C  0.47846934  0.70345673  0.75341926     0.79000
C990        C  0.52582626  0.79710776  0.75660175     0.79100
C991        C  0.52783739  0.70697105  0.75424540     0.79000
C992        C  0.47618538  0.79287476  0.75355609     0.78900
C993        C  0.35801332  0.50657050  0.71320572     0.88100
C994        C  0.36936803  0.53600100  0.72426217    -0.52200
C995        C  0.37887268  0.53060042  0.74958780     0.11000
C996        C  0.37594769  0.99736703  0.76295928     0.21900
C997        C  0.36982959  0.98012541  0.71229939    -0.52900
C998        C  0.38016253  0.97384398  0.73693458     0.11100
C999        C  0.34490271  0.99936652  0.74305457    -0.52400
C1000       C  0.35507896  0.99335576  0.76769745     0.11700
H1001       H  0.37077373  0.55879898  0.71157526     0.16200
H1002       H  0.38424666  0.99246148  0.78301069     0.01900
H1003       H  0.37051580  0.96418491  0.69301379     0.16500
H1004       H  0.33011218  0.99556584  0.74262284     0.16300
N1005       N  0.24520969  0.88546803  0.03285178    -0.35000
N1006       N  0.27001152  0.90998287  0.98745145    -0.55600
N1007       N  0.24415066  0.88733785  0.94242180    -0.35000
N1008       N  0.22049478  0.85916584  0.98818521    -0.55600
C1009       C  0.26044992  0.89226648  0.04891263     0.28500
C1010       C  0.23450753  0.86501785  0.04924445     0.28500
C1011       C  0.25881445  0.89528594  0.92529864     0.28500
C1012       C  0.23240606  0.86899690  0.92574649     0.28500
C1013       C  0.27785131  0.92444656  0.01134499     0.37200
C1014       C  0.27769748  0.92442858  0.96350783     0.37200
C1015       C  0.21007264  0.85332899  0.01233008     0.37200
C1016       C  0.20942113  0.85438020  0.96464304     0.37200
C1017       C  0.25942987  0.87587210  0.07573839    -0.20300
C1018       C  0.24306165  0.85870914  0.07595416    -0.20300
C1019       C  0.25617775  0.88222750  0.89725411    -0.20300
C1020       C  0.23950858  0.86583704  0.89749809    -0.20300
C1021       C  0.29054683  0.94822323  0.00253924    -0.21400
C1022       C  0.29052766  0.94807557  0.97224958    -0.21400
C1023       C  0.19234834  0.84460014  0.00408495    -0.21400
C1024       C  0.19196884  0.84504340  0.97386017    -0.21400
C1025       C  0.27463872  0.91468828  0.04087332    -0.16700
C1026       C  0.21669381  0.85366594  0.04159861    -0.16700
C1027       C  0.21509615  0.85623131  0.93490613    -0.16700
C1028       C  0.27411935  0.91520298  0.93388136    -0.16700
H1029       H  0.26937015  0.87646928  0.09348092     0.16200
H1030       H  0.23796010  0.84354214  0.09388535     0.16200
H1031       H  0.26526359  0.88440597  0.87844598     0.16200
H1032       H  0.23333205  0.85302611  0.87894050     0.16200
H1033       H  0.29911962  0.96373953  0.01645253     0.14500
H1034       H  0.29903313  0.96354930  0.95825268     0.14500
H1035       H  0.18093001  0.83817482  0.01830868     0.14500
H1036       H  0.18020489  0.83899113  0.96023297     0.14500
H1037       H  0.24130632  0.89741759  0.01356643     0.27700
H1038       H  0.24145745  0.89657959  0.96336005     0.27700
O1039       O  0.01873370  0.54690551  0.22018744    -0.70200
O1040       O  0.98371607  0.97683302  0.21524245    -0.70400
O1041       O  0.98197152  0.54494874  0.22385892    -0.70300
O1042       O  0.02082440  0.98024713  0.21422497    -0.70300
O1043       O  0.02194270  0.98222283  0.26196020    -0.70300
O1044       O  0.98346364  0.54446753  0.27157375    -0.70300
O1045       O  0.98538871  0.97515045  0.26305912    -0.70200
O1046       O  0.02038034  0.54743445  0.26801825    -0.70400
V1047       V  0.00090928  0.51242349  0.22296305     1.35200
V1048       V  0.00262164  0.51261927  0.26886055     1.35200
C1049       C  0.02560350  0.55894306  0.24347659     0.79000
C1050       C  0.97875430  0.96383726  0.23928604     0.79100
C1051       C  0.97615957  0.55573168  0.24838240     0.79000
C1052       C  0.02809560  0.97047380  0.23807890     0.78900
C1053       C  0.14929136  0.75647470  0.27205829     0.88100
C1054       C  0.15961163  0.76404027  0.24335369    -0.52200
C1055       C  0.14857640  0.76809577  0.21936355     0.11000
C1056       C  0.12789467  0.76498250  0.22636378     0.21900
C1057       C  0.13595401  0.78644854  0.27498444    -0.52900
C1058       C  0.12469780  0.79084461  0.25094157     0.11100
C1059       C  0.13689463  0.72679635  0.26505690    -0.52400
C1060       C  0.12538798  0.73126960  0.24185181     0.11700
H1061       H  0.17442024  0.76754565  0.24238978     0.16200
H1062       H  0.11907446  0.76800195  0.20662273     0.01900
H1063       H  0.13560697  0.80331902  0.29358232     0.16500
H1064       H  0.13608446  0.70498921  0.27916473     0.16300
C1065       C  0.85408804  0.76549500  0.28815122     0.88100
C1066       C  0.84413821  0.76028510  0.25880967    -0.52200
C1067       C  0.85538066  0.75679420  0.23487566     0.11000
C1068       C  0.87599281  0.75935105  0.24254327     0.21900
C1069       C  0.86755983  0.73564402  0.29001289    -0.52900
C1070       C  0.87885201  0.73256391  0.26601781     0.11100
C1071       C  0.86691684  0.79545796  0.28307395    -0.52400
C1072       C  0.87855936  0.79226235  0.25956008     0.11700
H1073       H  0.82931227  0.75714913  0.25762256     0.16200
H1074       H  0.88531326  0.75661656  0.22331041     0.01900
H1075       H  0.86912313  0.71902371  0.30846747     0.16500
H1076       H  0.86720430  0.81692526  0.29769873     0.16300
C1077       C  0.64830023  0.49155892  0.22865349     0.88100
C1078       C  0.65838437  0.48676735  0.25808567    -0.52200
C1079       C  0.64525375  0.98900573  0.28643670     0.11000
C1080       C  0.62487299  0.98882390  0.27708908     0.21900
C1081       C  0.63552128  0.96436774  0.23092203    -0.52900
C1082       C  0.62349414  0.96077724  0.25407159     0.11100
C1083       C  0.63577621  0.52179890  0.23320178    -0.52400
C1084       C  0.62444173  0.51973489  0.25692386     0.11700
H1085       H  0.67315179  0.48304058  0.25909679     0.16200
H1086       H  0.61508582  0.98630595  0.29575644     0.01900
H1087       H  0.63510824  0.94741733  0.21236838     0.16500
H1088       H  0.63528549  0.54258606  0.21792979     0.16300
C1089       C  0.35427603  0.98162795  0.21583037     0.88100
C1090       C  0.34229697  0.99037569  0.24275421    -0.52200
C1091       C  0.35097364  0.49593376  0.26682711     0.11000
C1092       C  0.37188626  0.49174135  0.26349099     0.21900
C1093       C  0.36771600  0.51237442  0.21355621    -0.52900
C1094       C  0.37714702  0.51671617  0.23938384     0.11100
C1095       C  0.36568760  0.95136394  0.22530014    -0.52400
C1096       C  0.37562142  0.95589468  0.25052097     0.11700
H1097       H  0.32755725  0.99448931  0.24138710     0.16200
H1098       H  0.37962821  0.49522172  0.28437404     0.01900
H1099       H  0.37071483  0.52815906  0.19501108     0.16500
H1100       H  0.36681447  0.92898770  0.21188427     0.16300
O1101       O  0.51938840  0.77034841  0.24275688    -0.70200
O1102       O  0.48129259  0.70625034  0.24094341    -0.70400
O1103       O  0.48249088  0.77309426  0.24235990    -0.70300
O1104       O  0.51830430  0.70385915  0.24208168    -0.70300
O1105       O  0.51804462  0.70363694  0.28994033    -0.70300
O1106       O  0.48162223  0.77127765  0.29012092    -0.70300
O1107       O  0.48107464  0.70408160  0.28873532    -0.70200
O1108       O  0.51882670  0.77078793  0.29053252    -0.70400
V1109       V  0.50033202  0.73833616  0.24300322     1.35200
V1110       V  0.49989254  0.73750758  0.28894610     1.35200
C1111       C  0.52576150  0.78153005  0.26668317     0.79000
C1112       C  0.47468894  0.69400830  0.26427034     0.79100
C1113       C  0.47585797  0.78391644  0.26637992     0.79000
C1114       C  0.52444697  0.69226799  0.26606254     0.78900
N1115       N  0.76170842  0.60879718  0.97017576    -0.35000
N1116       N  0.78318696  0.64044676  0.01578207    -0.55600
N1117       N  0.76141967  0.60648796  0.06057639    -0.35000
N1118       N  0.73900611  0.57711554  0.01483546    -0.55600
C1119       C  0.77074599  0.63227502  0.95443754     0.28500
C1120       C  0.74707370  0.59897130  0.95395795     0.28500
C1121       C  0.77029198  0.62971035  0.07693526     0.28500
C1122       C  0.74671128  0.59604739  0.07640340     0.28500
C1123       C  0.79376712  0.64783477  0.99218568     0.37200
C1124       C  0.79361740  0.64646784  0.03980729     0.37200
C1125       C  0.73265788  0.56127306  0.99061569     0.37200
C1126       C  0.73252783  0.56001048  0.03822050     0.37200
C1127       C  0.76182347  0.63727174  0.92782086    -0.20300
C1128       C  0.74686242  0.61622147  0.92751259    -0.20300
C1129       C  0.76117356  0.63399140  0.10354971    -0.20300
C1130       C  0.74628653  0.61269273  0.10322572    -0.20300
C1131       C  0.81101116  0.65845798  0.00118786    -0.21400
C1132       C  0.81094257  0.65750042  0.03142449    -0.21400
C1133       C  0.72218821  0.53384194  0.99857806    -0.21400
C1134       C  0.72214482  0.53298249  0.02883297    -0.21400
C1135       C  0.78743650  0.64772948  0.96283993    -0.16700
C1136       C  0.73460172  0.57340210  0.96168253    -0.16700
C1137       C  0.73424505  0.57072775  0.06771759    -0.16700
C1138       C  0.78700574  0.64551692  0.06906281    -0.16700
H1139       H  0.76575776  0.65414386  0.91034279     0.16200
H1140       H  0.73704226  0.61369777  0.90971935     0.16200
H1141       H  0.76492519  0.65056710  0.12143420     0.16200
H1142       H  0.73633533  0.60970661  0.12078648     0.16200
H1143       H  0.82233144  0.66656043  0.98743539     0.14500
H1144       H  0.82221920  0.66479923  0.04562175     0.14500
H1145       H  0.71497466  0.51676370  0.98411249     0.14500
H1146       H  0.71488984  0.51508846  0.04236435     0.14500
H1147       H  0.76641317  0.59739827  0.98928413     0.27700
H1148       H  0.76629356  0.59577842  0.04118042     0.27700
N1149       N  0.25592167  0.63207376  0.44588005    -0.35000
N1150       N  0.23255709  0.66388471  0.49022959    -0.55600
N1151       N  0.25447952  0.63368165  0.53618386    -0.35000
N1152       N  0.27921013  0.60525490  0.49174313    -0.55600
C1153       C  0.24602813  0.65283201  0.42867241     0.28500
C1154       C  0.27012816  0.62062115  0.42944950     0.28500
C1155       C  0.24379305  0.65433468  0.55249284     0.28500
C1156       C  0.26876523  0.62425412  0.55332701     0.28500
C1157       C  0.22268084  0.67088416  0.46584610     0.37200
C1158       C  0.22158531  0.67085069  0.51350341     0.37200
C1159       C  0.28641462  0.58873618  0.46841864     0.37200
C1160       C  0.28610999  0.59065811  0.51611850     0.37200
C1161       C  0.25397975  0.65442437  0.40089570    -0.20300
C1162       C  0.26916570  0.63404261  0.40137151    -0.20300
C1163       C  0.25123960  0.65769759  0.58046430    -0.20300
C1164       C  0.26702876  0.63885998  0.58095411    -0.20300
C1165       C  0.20543876  0.68272411  0.47366936    -0.21400
C1166       C  0.20475011  0.68270549  0.50389030    -0.21400
C1167       C  0.29810918  0.56383355  0.47798812    -0.21400
C1168       C  0.29791059  0.56502337  0.50821128    -0.21400
C1169       C  0.22929927  0.66844261  0.43664161    -0.16700
C1170       C  0.28329803  0.59689763  0.43858242    -0.16700
C1171       C  0.28265378  0.60113406  0.54539919    -0.16700
C1172       C  0.22702750  0.66887417  0.54329399    -0.16700
H1173       H  0.24918029  0.66843339  0.38207598     0.16200
H1174       H  0.27835717  0.62940216  0.38303479     0.16200
H1175       H  0.24582707  0.67211561  0.59869869     0.16200
H1176       H  0.27609294  0.63595645  0.59967844     0.16200
H1177       H  0.19453285  0.69077706  0.45913223     0.14500
H1178       H  0.19325295  0.69084264  0.51724662     0.14500
H1179       H  0.30601739  0.54668797  0.46460358     0.14500
H1180       H  0.30561348  0.54885991  0.52268908     0.14500
H1181       H  0.25194115  0.62311012  0.46631487     0.27700
H1182       H  0.25110633  0.62355975  0.51583649     0.27700
N1183       N  0.74051165  0.85378084  0.55694043    -0.35000
N1184       N  0.76454692  0.83087719  0.50947736    -0.55600
N1185       N  0.73759620  0.85336725  0.46608989    -0.35000
N1186       N  0.71474720  0.87983756  0.51347896    -0.55600
C1187       C  0.75566906  0.84584513  0.57273141     0.28500
C1188       C  0.72932430  0.87173932  0.57478793     0.28500
C1189       C  0.75203912  0.84613015  0.44830054     0.28500
C1190       C  0.72604679  0.87314265  0.45056451     0.28500
C1191       C  0.77409914  0.81875527  0.53266107     0.37200
C1192       C  0.77244880  0.81814916  0.48490593     0.37200
C1193       C  0.70486472  0.88582164  0.53816785     0.37200
C1194       C  0.70352406  0.88631281  0.49047671     0.37200
C1195       C  0.75382732  0.85811245  0.60121721    -0.20300
C1196       C  0.73725429  0.87445353  0.60249599    -0.20300
C1197       C  0.74942619  0.86080999  0.42101085    -0.20300
C1198       C  0.73314504  0.87798289  0.42248942    -0.20300
C1199       C  0.78826171  0.79855457  0.52274077    -0.21400
C1200       C  0.78717785  0.79807125  0.49252289    -0.21400
C1201       C  0.68726285  0.89606300  0.53081684    -0.21400
C1202       C  0.68638818  0.89622915  0.50060589    -0.21400
C1203       C  0.77090452  0.82699507  0.56259937    -0.16700
C1204       C  0.71191158  0.88498513  0.56717241    -0.16700
C1205       C  0.70902626  0.88632391  0.46057275    -0.16700
C1206       C  0.76745070  0.82626455  0.45563849    -0.16700
H1207       H  0.76343862  0.85563699  0.61928057     0.16200
H1208       H  0.73168706  0.88689319  0.62172449     0.16200
H1209       H  0.75845860  0.85970860  0.40205454     0.16200
H1210       H  0.72729341  0.89257311  0.40482957     0.16200
H1211       H  0.79842289  0.78572172  0.53588929     0.14500
H1212       H  0.79637342  0.78485048  0.47782964     0.14500
H1213       H  0.67629533  0.90325827  0.54566409     0.14500
H1214       H  0.67460930  0.90355113  0.48759577     0.14500
H1215       H  0.73727904  0.84500693  0.53608161     0.27700
H1216       H  0.73499433  0.84289587  0.48656239     0.27700
C1217       C  0.32296788  0.57457991  0.38770830     0.14200
C1218       C  0.31485337  0.55004715  0.36976920     0.01200
C1219       C  0.29663220  0.54013031  0.37516262     0.16200
C1220       C  0.28650603  0.55498531  0.39789593     0.25600
C1221       C  0.29447473  0.57997275  0.41551410    -0.40700
C1222       C  0.31284933  0.58939543  0.41053916     0.32600
C1223       C  0.32480651  0.53657470  0.34397167     0.01300
F1224       F  0.28855940  0.51656656  0.35793532    -0.13100
F1225       F  0.32077998  0.61348744  0.42735235    -0.13600
C1226       C  0.33551923  0.50760593  0.34622499     0.16200
C1227       C  0.34426342  0.49439443  0.32119821     0.25600
C1228       C  0.34212797  0.50977653  0.29363417    -0.40700
C1229       C  0.33157740  0.53903507  0.29161566     0.32600
C1230       C  0.32302910  0.55232074  0.31658965     0.14300
F1231       F  0.33728215  0.49198080  0.37255534    -0.13000
F1232       F  0.32981911  0.55511988  0.26548319    -0.13600
F1233       F  0.34596454  0.95786610  0.32123298    -0.15800
F1234       F  0.31288863  0.58052906  0.31406726    -0.14400
F1235       F  0.34051892  0.58466974  0.38261665    -0.14400
F1236       F  0.26883724  0.54531854  0.40256699    -0.15800
C1237       C  0.43593375  0.83861421  0.29103964     0.14200
C1238       C  0.43417424  0.86053104  0.26713643     0.01200
C1239       C  0.44646672  0.85768687  0.24331348     0.16200
C1240       C  0.46001552  0.83291071  0.24306720     0.25600
C1241       C  0.46167366  0.81058536  0.26680796    -0.40700
C1242       C  0.44957283  0.81397939  0.29096754     0.32600
C1243       C  0.41906456  0.88541603  0.26631554     0.01300
F1244       F  0.44505025  0.87845193  0.21986549    -0.13100
F1245       F  0.45058358  0.79289764  0.31424994    -0.13600
C1246       C  0.42298728  0.91964800  0.26437681     0.16200
C1247       C  0.40875194  0.94280478  0.26096735     0.25600
C1248       C  0.39032556  0.93210798  0.25911022    -0.40700
C1249       C  0.38638404  0.89795557  0.26195285     0.32600
C1250       C  0.40060634  0.87485348  0.26573872     0.14300
F1251       F  0.44067219  0.93058136  0.26513952    -0.13000
F1252       F  0.36874740  0.88690304  0.26037597    -0.13600
F1253       F  0.41314027  0.97543565  0.25765256    -0.15800
F1254       F  0.39641530  0.84194156  0.26742444    -0.14400
F1255       F  0.42442586  0.84113352  0.31452866    -0.14400
F1256       F  0.47162428  0.83102352  0.21966379    -0.15800
C1257       C  0.43437506  0.64391900  0.23498342     0.14200
C1258       C  0.43258571  0.61876198  0.25620558     0.01200
C1259       C  0.44437033  0.61891848  0.28078890     0.16200
C1260       C  0.45789366  0.64369262  0.28388569     0.25600
C1261       C  0.45985979  0.66864553  0.26235901    -0.40700
C1262       C  0.44787299  0.66852256  0.23795420     0.32600
C1263       C  0.41856822  0.59221440  0.25226861     0.01300
F1264       F  0.44314811  0.59445288  0.30129661    -0.13100
F1265       F  0.44905342  0.69252407  0.21700849    -0.13600
C1266       C  0.41898419  0.57160606  0.22714638     0.16200
C1267       C  0.40548627  0.54718610  0.22286407     0.25600
C1268       C  0.39134164  0.54288623  0.24367498    -0.40700
C1269       C  0.39096085  0.56339960  0.26886779     0.32600
C1270       C  0.40444749  0.58790731  0.27309607     0.14300
F1271       F  0.43265811  0.57484284  0.20694168    -0.13000
F1272       F  0.37719737  0.56045929  0.28894217    -0.13600
F1273       F  0.40653310  0.52712942  0.19876346    -0.15800
F1274       F  0.40343884  0.60807821  0.29712138    -0.14400
F1275       F  0.42288736  0.64481902  0.21140873    -0.14400
F1276       F  0.46951396  0.64245416  0.30726241    -0.15800
C1277       C  0.67517352  0.98066947  0.35483721     0.14200
C1278       C  0.66734120  0.95254990  0.36861510     0.01200
C1279       C  0.65093064  0.93927527  0.35698545     0.16200
C1280       C  0.64343291  0.95180986  0.33090386     0.25600
C1281       C  0.65174067  0.97888209  0.31631978    -0.40700
C1282       C  0.66729279  0.99395380  0.32923424     0.32600
C1283       C  0.67690146  0.93548413  0.39350887     0.01300
F1284       F  0.64234851  0.91338466  0.37046953    -0.13100
F1285       F  0.67513611  0.02117572  0.31669219    -0.13600
C1286       C  0.68366355  0.95353501  0.41793225     0.16200
C1287       C  0.69385268  0.93751075  0.43991871     0.25600
C1288       C  0.69690252  0.90295695  0.43854188    -0.40700
C1289       C  0.68939809  0.88463755  0.41504006     0.32600
C1290       C  0.67990847  0.90076699  0.39242145     0.14300
F1291       F  0.68045307  0.98670753  0.42055952    -0.13000
F1292       F  0.69182606  0.85114693  0.41353226    -0.13600
F1293       F  0.70112042  0.95584495  0.46227854    -0.15800
F1294       F  0.67436966  0.88251014  0.36878536    -0.14400
F1295       F  0.69102716  0.99430669  0.36514405    -0.14400
F1296       F  0.62870886  0.93585235  0.31906413    -0.15800
C1297       C  0.71687986  0.52288243  0.13419726     0.14200
C1298       C  0.69786873  0.52879419  0.13270690     0.01200
C1299       C  0.69078651  0.54811217  0.10962598     0.16200
C1300       C  0.70261745  0.56173910  0.08850062     0.25600
C1301       C  0.72168248  0.55610790  0.09013338    -0.40700
C1302       C  0.72871312  0.53639027  0.11301140     0.32600
C1303       C  0.68568355  0.51747935  0.15675455     0.01300
F1304       F  0.67249862  0.55470255  0.10818908    -0.13100
F1305       F  0.74703979  0.53032517  0.11479625    -0.13600
C1306       C  0.68656958  0.53344488  0.18411789     0.16200
C1307       C  0.67465751  0.52432620  0.20678750     0.25600
C1308       C  0.66165171  0.49828036  0.20305170    -0.40700
C1309       C  0.66084844  0.48231325  0.17513050     0.32600
C1310       C  0.67276389  0.49197617  0.15231393     0.14300
F1311       F  0.68681289  0.07731931  0.18139440    -0.13000
F1312       F  0.64815740  0.45866926  0.16878926    -0.13600
F1313       F  0.66625328  0.05884461  0.22809820    -0.15800
F1314       F  0.67152751  0.47668458  0.12564217    -0.14400
F1315       F  0.72394335  0.50423510  0.15636430    -0.14400
F1316       F  0.69555121  0.58099292  0.06673891    -0.15800
C1317       C  0.56667363  0.64248375  0.24489770     0.14200
C1318       C  0.56710133  0.61810406  0.26703448     0.01200
C1319       C  0.55350864  0.61826080  0.28904127     0.16200
C1320       C  0.53958074  0.64234700  0.28875997     0.25600
C1321       C  0.53898865  0.66651711  0.26631182    -0.40700
C1322       C  0.55272119  0.66639571  0.24445917     0.32600
C1323       C  0.58121579  0.59159913  0.26600262     0.01300
F1324       F  0.55342984  0.59449103  0.31026547    -0.13100
F1325       F  0.55291995  0.68997100  0.22306972    -0.13600
C1326       C  0.59486619  0.58921955  0.28788371     0.16200
C1327       C  0.60878611  0.56518187  0.28548820     0.25600
C1328       C  0.60918508  0.54348583  0.26117888    -0.40700
C1329       C  0.59530000  0.54540097  0.23975430     0.32600
C1330       C  0.58141508  0.56919107  0.24218235     0.14300
F1331       F  0.59508141  0.61093336  0.31088436    -0.13000
F1332       F  0.59526061  0.52419045  0.21636787    -0.13600
F1333       F  0.62226447  0.56395376  0.30614775    -0.15800
F1334       F  0.56815715  0.57053485  0.22115719    -0.14400
F1335       F  0.57991067  0.64321635  0.22376989    -0.14400
F1336       F  0.52635414  0.64138833  0.30989731    -0.15800
C1337       C  0.60152337  0.87463165  0.25489355     0.14200
C1338       C  0.58306173  0.88226255  0.26126299     0.01200
C1339       C  0.57797183  0.91570180  0.26503367     0.16200
C1340       C  0.59110817  0.94107383  0.26285684     0.25600
C1341       C  0.60957003  0.93362046  0.25613320    -0.40700
C1342       C  0.61466056  0.90010294  0.25224633     0.32600
C1343       C  0.56897046  0.85554776  0.26331164     0.01300
F1344       F  0.56013261  0.92385837  0.27017126    -0.13100
F1345       F  0.63246866  0.89194364  0.24690959    -0.13600
C1346       C  0.55908952  0.85038143  0.28958476     0.16200
C1347       C  0.54526138  0.82598673  0.29104386     0.25600
C1348       C  0.54095733  0.80646528  0.26610772    -0.40700
C1349       C  0.55114541  0.81149707  0.23993827     0.32600
C1350       C  0.56493823  0.83577674  0.23860333     0.14300
F1351       F  0.56287064  0.86901210  0.31387309    -0.13000
F1352       F  0.54784144  0.79288120  0.21544972    -0.13600
F1353       F  0.53585498  0.82204956  0.31666123    -0.15800
F1354       F  0.57404971  0.84062394  0.21281655    -0.14400
F1355       F  0.60686664  0.84243543  0.25175450    -0.14400
F1356       F  0.58558944  0.97299811  0.26678154    -0.15800
C1357       C  0.81711345  0.80904336  0.33483366     0.14200
C1358       C  0.81475249  0.78753051  0.35875341     0.01200
C1359       C  0.82442111  0.75741752  0.35930099     0.16200
C1360       C  0.83689163  0.74932656  0.33682240     0.25600
C1361       C  0.84022004  0.77173251  0.31326401    -0.40700
C1362       C  0.82948506  0.80115110  0.31226160     0.32600
C1363       C  0.80261254  0.79700781  0.38359499     0.01300
F1364       F  0.82189420  0.73582194  0.38192776    -0.13100
F1365       F  0.83098306  0.82253133  0.28922665    -0.13600
C1366       C  0.78563986  0.78092217  0.38795014     0.16200
C1367       C  0.77425105  0.79023236  0.41151799     0.25600
C1368       C  0.77979446  0.81547863  0.43117886    -0.40700
C1369       C  0.79680396  0.83142017  0.42684005     0.32600
C1370       C  0.80809932  0.82230983  0.40317687     0.14300
F1371       F  0.78001368  0.75661456  0.36910754    -0.13000
F1372       F  0.80233123  0.85608923  0.44537785    -0.13600
F1373       F  0.75778029  0.77476700  0.41515338    -0.15800
F1374       F  0.82449225  0.83801049  0.39941850    -0.14400
F1375       F  0.80732596  0.83775190  0.33328078    -0.14400
F1376       F  0.84483424  0.71895386  0.33815495    -0.15800
C1377       C  0.84715719  0.70338694  0.16697565     0.14200
C1378       C  0.82961140  0.71430114  0.15830580     0.01200
C1379       C  0.82177599  0.74190717  0.17267693     0.16200
C1380       C  0.83098870  0.75755758  0.19589635     0.25600
C1381       C  0.84793442  0.74518714  0.20606429    -0.40700
C1382       C  0.85619395  0.71849593  0.19078424     0.32600
C1383       C  0.81913369  0.69640390  0.13505628     0.01300
F1384       F  0.80471621  0.75272372  0.16526548    -0.13100
F1385       F  0.87242943  0.70550350  0.19987666    -0.13600
C1386       C  0.81580417  0.66191607  0.13730993     0.16200
C1387       C  0.80535387  0.64537287  0.11589207     0.25600
C1388       C  0.79776897  0.66311679  0.09222724    -0.40700
C1389       C  0.80088960  0.69759483  0.09015602     0.32600
C1390       C  0.81170098  0.71398775  0.11111177     0.14300
F1391       F  0.82232216  0.64436048  0.16058548    -0.13000
F1392       F  0.79348819  0.71535157  0.06768988    -0.13600
F1393       F  0.80266728  0.61199053  0.11814430    -0.15800
F1394       F  0.81507315  0.74705133  0.10784937    -0.14400
F1395       F  0.85536907  0.67752862  0.15281861    -0.14400
F1396       F  0.82300418  0.78426311  0.20911513    -0.15800
C1397       C  0.19558055  0.67434793  0.37359466     0.14200
C1398       C  0.19510040  0.70889911  0.36863541     0.01200
C1399       C  0.20594003  0.73018581  0.38611686     0.16200
C1400       C  0.21723619  0.71705339  0.40812135     0.25600
C1401       C  0.21778030  0.68251948  0.41285583    -0.40700
C1402       C  0.20687903  0.66126344  0.39554740     0.32600
C1403       C  0.18381750  0.72252462  0.34447489     0.01300
F1404       F  0.20585227  0.76356479  0.38140128    -0.13100
F1405       F  0.20708184  0.62787382  0.40020941    -0.13600
C1406       C  0.16918169  0.74424246  0.35036635     0.16200
C1407       C  0.15820195  0.75630082  0.32739715     0.25600
C1408       C  0.16198662  0.74744431  0.29774476    -0.40700
C1409       C  0.17638878  0.72440995  0.29247268     0.32600
C1410       C  0.18730647  0.71271791  0.31540988     0.14300
F1411       F  0.16491318  0.75239597  0.37862869    -0.13000
F1412       F  0.17946546  0.71174152  0.26511751    -0.13600
F1413       F  0.14315687  0.77426222  0.33490411    -0.15800
F1414       F  0.20119469  0.69121235  0.30923629    -0.14400
F1415       F  0.18494807  0.65336368  0.35734943    -0.14400
F1416       F  0.22773429  0.73790125  0.42470637    -0.15800
C1417       C  0.08120722  0.83828397  0.23099743     0.14200
C1418       C  0.08523790  0.87032191  0.24155828     0.01200
C1419       C  0.10222367  0.87638723  0.25523097     0.16200
C1420       C  0.11511779  0.85075896  0.25816313     0.25600
C1421       C  0.11101958  0.81829359  0.24813335    -0.40700
C1422       C  0.09385900  0.81239539  0.23452383     0.32600
C1423       C  0.07112683  0.89671270  0.24038077     0.01300
F1424       F  0.10630763  0.90724308  0.26570896    -0.13100
F1425       F  0.08893397  0.78134054  0.22557612    -0.13600
C1426       C  0.06110529  0.90449966  0.26584289     0.16200
C1427       C  0.04727847  0.92856172  0.26505501     0.25600
C1428       C  0.04315926  0.94547168  0.23862070    -0.40700
C1429       C  0.05344700  0.93783369  0.21311337     0.32600
C1430       C  0.06728690  0.91353524  0.21401121     0.14300
F1431       F  0.06448640  0.88817644  0.29143954    -0.13000
F1432       F  0.05030352  0.95409759  0.18742623    -0.13600
F1433       F  0.03765411  0.93464035  0.29016232    -0.15800
F1434       F  0.07701974  0.90651069  0.18921451    -0.14400
F1435       F  0.06472767  0.83186068  0.21807768    -0.14400
F1436       F  0.13174976  0.85802002  0.27016443    -0.15800
C1437       C  0.06879858  0.60889007  0.25760243     0.14200
C1438       C  0.06616215  0.63642062  0.23904963     0.01200
C1439       C  0.05010188  0.63850712  0.22203829     0.16200
C1440       C  0.03688172  0.61314475  0.22334313     0.25600
C1441       C  0.03948017  0.58565107  0.24200992    -0.40700
C1442       C  0.05551293  0.58373478  0.25916699     0.32600
C1443       C  0.08007226  0.66321584  0.23812893     0.01300
F1444       F  0.04707421  0.66547111  0.20473771    -0.13100
F1445       F  0.05854817  0.55700344  0.27675737    -0.13600
C1446       C  0.09119281  0.66779097  0.21306150     0.16200
C1447       C  0.10556678  0.69116318  0.21352037     0.25600
C1448       C  0.10883565  0.71011347  0.23901232    -0.40700
C1449       C  0.09707098  0.70662983  0.26347952     0.32600
C1450       C  0.08289697  0.68321508  0.26310330     0.14300
F1451       F  0.08866639  0.64848792  0.18877245    -0.13000
F1452       F  0.09966313  0.72539500  0.28811420    -0.13600
F1453       F  0.11686214  0.69399239  0.18981717    -0.15800
F1454       F  0.07213695  0.67952755  0.28736942    -0.14400
F1455       F  0.08437592  0.60624810  0.27392280    -0.14400
F1456       F  0.02128968  0.61590402  0.20709002    -0.15800
C1457       C  0.92427140  0.68925876  0.25260245     0.14200
C1458       C  0.91921766  0.65568418  0.25550458     0.01200
C1459       C  0.90087318  0.64734680  0.26177761     0.16200
C1460       C  0.88772397  0.67239685  0.26543921     0.25600
C1461       C  0.89280102  0.70606659  0.26287585    -0.40700
C1462       C  0.91114359  0.71432079  0.25622676     0.32600
C1463       C  0.93330851  0.62947476  0.25338367     0.01300
F1464       F  0.89573054  0.61493229  0.26414500    -0.13100
F1465       F  0.91646447  0.74665751  0.25407101    -0.13600
C1466       C  0.94008453  0.61475353  0.27910790     0.16200
C1467       C  0.95394057  0.59076400  0.27753017     0.25600
C1468       C  0.96123786  0.58090213  0.25000410    -0.40700
C1469       C  0.95414779  0.59557046  0.22415676     0.32600
C1470       C  0.94034586  0.61973932  0.22591259     0.14300
F1471       F  0.93344320  0.62409756  0.30586705    -0.13000
F1472       F  0.96062870  0.58685152  0.19714232    -0.13600
F1473       F  0.96017808  0.57734447  0.30305812    -0.15800
F1474       F  0.93379664  0.63363855  0.20078740    -0.14400
F1475       F  0.94201460  0.69770842  0.24688954    -0.14400
F1476       F  0.86995488  0.66380079  0.27074070    -0.15800
C1477       C  0.93459406  0.91596529  0.22815930     0.14200
C1478       C  0.93862485  0.88545859  0.24187201     0.01200
C1479       C  0.95631070  0.88048317  0.25372344     0.16200
C1480       C  0.96944763  0.90602818  0.25288082     0.25600
C1481       C  0.96524468  0.93655832  0.23954380    -0.40700
C1482       C  0.94787939  0.94116609  0.22673490     0.32600
C1483       C  0.92395489  0.86004425  0.24581036     0.01300
F1484       F  0.96081723  0.85091216  0.26620355    -0.13100
F1485       F  0.94351114  0.97071423  0.21407888    -0.13600
C1486       C  0.91398847  0.84753487  0.22157235     0.16200
C1487       C  0.89923825  0.82546430  0.22588262     0.25600
C1488       C  0.89424279  0.81550123  0.25451303    -0.40700
C1489       C  0.90472547  0.82712853  0.27858404     0.32600
C1490       C  0.91926091  0.84936763  0.27429051     0.14300
F1491       F  0.91856042  0.85670605  0.19372491    -0.13000
F1492       F  0.90117953  0.81647038  0.30639209    -0.13600
F1493       F  0.88956772  0.81459602  0.20213052    -0.15800
F1494       F  0.92847925  0.86117508  0.29817760    -0.14400
F1495       F  0.91751503  0.92193858  0.21734308    -0.14400
F1496       F  0.98634426  0.90086538  0.26474113    -0.15800
C1497       C  0.18863871  0.79513966  0.08963186     0.14200
C1498       C  0.18354117  0.81624295  0.11309838     0.01200
C1499       C  0.18877581  0.85001937  0.11221447     0.16200
C1500       C  0.19902099  0.86229381  0.08849242     0.25600
C1501       C  0.20462934  0.84090457  0.06561868    -0.40700
C1502       C  0.19933352  0.80723916  0.06635338     0.32600
C1503       C  0.17367650  0.80262580  0.13913573     0.01300
F1504       F  0.18459974  0.87088396  0.13485633    -0.13100
F1505       F  0.20483216  0.78595681  0.04477745    -0.13600
C1506       C  0.18082597  0.77493387  0.15416424     0.16200
C1507       C  0.17207464  0.76270036  0.17931743     0.25600
C1508       C  0.15622654  0.77835061  0.19045294    -0.40700
C1509       C  0.14888026  0.80574556  0.17526486     0.32600
C1510       C  0.15746508  0.81764472  0.14971406     0.14300
F1511       F  0.19674606  0.76045823  0.14518220    -0.13000
F1512       F  0.13396242  0.82212388  0.18592165    -0.13600
F1513       F  0.17927058  0.73572237  0.19308369    -0.15800
F1514       F  0.15003448  0.84408946  0.13548498    -0.14400
F1515       F  0.18333127  0.76268883  0.08934165    -0.14400
F1516       F  0.20383936  0.89499324  0.08809208    -0.15800
C1517       C  0.29058639  0.95600783  0.11193322     0.14200
C1518       C  0.30937934  0.94788912  0.11235051     0.01200
C1519       C  0.31692022  0.92998875  0.08854866     0.16200
C1520       C  0.30574539  0.91965201  0.06507013     0.25600
C1521       C  0.28691169  0.92759579  0.06473262    -0.40700
C1522       C  0.27948413  0.94617375  0.08824735     0.32600
C1523       C  0.32090440  0.95687645  0.13819155     0.01300
F1524       F  0.33497115  0.92140548  0.08862405    -0.13100
F1525       F  0.26134931  0.95420379  0.08848853    -0.13600
C1526       C  0.31703004  0.94327742  0.16592027     0.16200
C1527       C  0.32796152  0.95120901  0.19032713     0.25600
C1528       C  0.34289279  0.97379351  0.18797565    -0.40700
C1529       C  0.34718427  0.98610305  0.15946565     0.32600
C1530       C  0.33613489  0.97806398  0.13512106     0.14300
F1531       F  0.30286658  0.92148331  0.16922180    -0.13000
F1532       F  0.35074369  0.52483421  0.15872258    -0.13600
F1533       F  0.32405408  0.93617025  0.21637117    -0.15800
F1534       F  0.34042291  0.99090070  0.10831248    -0.14400
F1535       F  0.28298202  0.97336892  0.13458857    -0.14400
F1536       F  0.31316298  0.90093406  0.04311877    -0.15800
C1537       C  0.32869859  0.93637333  0.81894566     0.14200
C1538       C  0.32567404  0.95726110  0.84336492     0.01200
C1539       C  0.33381699  0.98908413  0.84390009     0.16200
C1540       C  0.34429916  0.00029554  0.81987093     0.25600
C1541       C  0.34651147  0.98000754  0.79486688    -0.40700
C1542       C  0.33887475  0.94779482  0.79474998     0.32600
C1543       C  0.31275624  0.94691229  0.86698996     0.01300
F1544       F  0.34147313  0.49281571  0.87111254    -0.13100
F1545       F  0.34088985  0.92775236  0.77079433    -0.13600
C1546       C  0.31811659  0.92406488  0.88871926     0.16200
C1547       C  0.30559299  0.91389884  0.91048813     0.25600
C1548       C  0.28746733  0.92623409  0.91072518    -0.40700
C1549       C  0.28216327  0.94913654  0.88895683     0.32600
C1550       C  0.29470654  0.95937388  0.86729477     0.14300
F1551       F  0.33548305  0.91171281  0.88886724    -0.13000
F1552       F  0.26482762  0.96161807  0.88876144    -0.13600
F1553       F  0.31108454  0.89180630  0.93127639    -0.15800
F1554       F  0.28918770  0.98116481  0.84627780    -0.14400
F1555       F  0.32111040  0.90545362  0.81802644    -0.14400
F1556       F  0.36220730  0.51289577  0.82413934    -0.15800
C1557       C  0.34049213  0.52027477  0.63320905     0.14200
C1558       C  0.32676569  0.54411915  0.63816422     0.01200
C1559       C  0.32328784  0.55506202  0.66689114     0.16200
C1560       C  0.33326452  0.54229415  0.69046901     0.25600
C1561       C  0.34685379  0.51745337  0.68617081    -0.40700
C1562       C  0.35047908  0.50697402  0.65685357     0.32600
C1563       C  0.31582801  0.55775053  0.61360839     0.01300
F1564       F  0.31044948  0.57891520  0.67204555    -0.13100
F1565       F  0.36410172  0.48529373  0.65027074    -0.13600
C1566       C  0.29693176  0.55068237  0.61191183     0.16200
C1567       C  0.28617623  0.56491699  0.58981364     0.25600
C1568       C  0.29413254  0.58667556  0.56923109    -0.40700
C1569       C  0.31305324  0.59385525  0.57093873     0.32600
C1570       C  0.32386566  0.57932806  0.59292630     0.14300
F1571       F  0.28894556  0.52984848  0.63169038    -0.13000
F1572       F  0.32095927  0.61509393  0.55141058    -0.13600
F1573       F  0.26798758  0.55735688  0.58833723    -0.15800
F1574       F  0.34205119  0.58690781  0.59450474    -0.14400
F1575       F  0.34427523  0.50991662  0.60533648    -0.14400
F1576       F  0.32336155  0.04914215  0.72044240    -0.15800
C1577       C  0.43598743  0.84338016  0.72461070     0.14200
C1578       C  0.43355715  0.86719732  0.74703995     0.01200
C1579       C  0.44466918  0.86541825  0.77240708     0.16200
C1580       C  0.45812227  0.84064827  0.77508492     0.25600
C1581       C  0.46099544  0.81752682  0.75217100    -0.40700
C1582       C  0.44960240  0.81897188  0.72704017     0.32600
C1583       C  0.41956917  0.89398784  0.74392045     0.01300
F1584       F  0.44291589  0.88840514  0.79424117    -0.13100
F1585       F  0.45147022  0.79647699  0.70481575    -0.13600
C1586       C  0.40627069  0.89904805  0.76599649     0.16200
C1587       C  0.39352840  0.92495451  0.76368590     0.25600
C1588       C  0.39354467  0.94599242  0.73895170    -0.40700
C1589       C  0.40661542  0.94061124  0.71655470     0.32600
C1590       C  0.41956977  0.91497799  0.71908926     0.14300
F1591       F  0.40540923  0.87848511  0.78966035    -0.13000
F1592       F  0.40730508  0.96096325  0.69272793    -0.13600
F1593       F  0.38089756  0.92891320  0.78543512    -0.15800
F1594       F  0.43246457  0.91129138  0.69765878    -0.14400
F1595       F  0.42501825  0.84349848  0.70039352    -0.14400
F1596       F  0.46877006  0.84012516  0.79964227    -0.15800
C1597       C  0.42580664  0.56852180  0.76201777     0.14200
C1598       C  0.42179678  0.60247501  0.75855602     0.01200
C1599       C  0.40343550  0.61281822  0.75715208     0.16200
C1600       C  0.38924055  0.58932584  0.75757361     0.25600
C1601       C  0.39320834  0.55497473  0.75867661    -0.40700
C1602       C  0.41161064  0.54484289  0.76196673     0.32600
C1603       C  0.43674053  0.62727559  0.75667299     0.01300
F1604       F  0.39930564  0.64565520  0.75458698    -0.13100
F1605       F  0.41601958  0.51204852  0.76279743    -0.13600
C1606       C  0.44158275  0.64162217  0.72952574     0.16200
C1607       C  0.45542365  0.66594825  0.72812389     0.25600
C1608       C  0.46449620  0.67644266  0.75398332    -0.40700
C1609       C  0.45960321  0.66154812  0.78109252     0.32600
C1610       C  0.44587599  0.63726551  0.78232077     0.14300
F1611       F  0.43282164  0.63215380  0.70443114    -0.13000
F1612       F  0.46801669  0.67046719  0.80664983    -0.13600
F1613       F  0.45960544  0.67967520  0.70163068    -0.15800
F1614       F  0.44118456  0.62392405  0.80875453    -0.14400
F1615       F  0.44354321  0.55824762  0.76394161    -0.14400
F1616       F  0.37158559  0.60001559  0.75533645    -0.15800
C1617       C  0.69138594  0.54018922  0.83915804     0.14200
C1618       C  0.68752698  0.52845996  0.86751599     0.01200
C1619       C  0.67188697  0.50876085  0.87214585     0.16200
C1620       C  0.66023707  0.50055732  0.84869920     0.25600
C1621       C  0.66432109  0.51118397  0.81960717    -0.40700
C1622       C  0.67983841  0.53212036  0.81560909     0.32600
C1623       C  0.69931702  0.53839085  0.89252190     0.01300
F1624       F  0.66764770  0.49800613  0.89968867    -0.13100
F1625       F  0.68350745  0.54603936  0.78899540    -0.13600
C1626       C  0.69224925  0.55870045  0.91512590     0.16200
C1627       C  0.70366271  0.56949743  0.93801451     0.25600
C1628       C  0.72224891  0.56011863  0.93853273    -0.40700
C1629       C  0.72923804  0.53931973  0.91629902     0.32600
C1630       C  0.71784059  0.52855415  0.89337111     0.14300
F1631       F  0.67446994  0.56896152  0.91444487    -0.13000
F1632       F  0.74713039  0.52973346  0.91677135    -0.13600
F1633       F  0.69676260  0.58985082  0.95926034    -0.15800
F1634       F  0.72484406  0.50857814  0.87194449    -0.14400
F1635       F  0.70597957  0.56070094  0.83449381    -0.14400
F1636       F  0.64441253  0.48448826  0.85551203    -0.15800
C1637       C  0.69297342  0.95020198  0.61949245     0.14200
C1638       C  0.68083360  0.93123147  0.63691958     0.01200
C1639       C  0.67851456  0.89709235  0.63047183     0.16200
C1640       C  0.68863520  0.88202312  0.60785693     0.25600
C1641       C  0.70085902  0.90096295  0.59082555    -0.40700
C1642       C  0.70278067  0.93519280  0.59647165     0.32600
C1643       C  0.67177432  0.94621588  0.66319790     0.01300
F1644       F  0.66652535  0.87826047  0.64626724    -0.13100
F1645       F  0.71456121  0.95382709  0.58011086    -0.13600
C1646       C  0.66148990  0.97588773  0.66122989     0.16200
C1647       C  0.65388731  0.99045353  0.68664962     0.25600
C1648       C  0.65637391  0.97546078  0.71425240    -0.40700
C1649       C  0.66603515  0.94520391  0.71596380     0.32600
C1650       C  0.67390113  0.93108377  0.69087622     0.14300
F1651       F  0.65885855  0.99079420  0.63475630    -0.13000
F1652       F  0.66794523  0.92925649  0.74214398    -0.13600
F1653       F  0.64597694  0.52312993  0.68395977    -0.15800
F1654       F  0.68418818  0.90310880  0.69388447    -0.14400
F1655       F  0.69595369  0.98291774  0.62552865    -0.14400
F1656       F  0.68667514  0.84887153  0.60272911    -0.15800
C1657       C  0.59099646  0.58786957  0.72850423     0.14200
C1658       C  0.58415149  0.60501379  0.75334366     0.01200
C1659       C  0.59181052  0.59830745  0.78102548     0.16200
C1660       C  0.60555880  0.57451091  0.78418187     0.25600
C1661       C  0.61306134  0.55795373  0.75935895    -0.40700
C1662       C  0.60542885  0.56475868  0.73143338     0.32600
C1663       C  0.56897388  0.62978130  0.75124058     0.01300
F1664       F  0.58597466  0.61504367  0.80535537    -0.13100
F1665       F  0.61199204  0.54949244  0.70688652    -0.13600
C1666       C  0.55342293  0.62677996  0.76962210     0.16200
C1667       C  0.54030287  0.65219286  0.77106192     0.25600
C1668       C  0.54213645  0.68075037  0.75350595    -0.40700
C1669       C  0.55723931  0.68318389  0.73413328     0.32600
C1670       C  0.57063614  0.65807772  0.73321520     0.14300
F1671       F  0.55098293  0.59912367  0.78634834    -0.13000
F1672       F  0.55938203  0.71048423  0.71686416    -0.13600
F1673       F  0.52553167  0.64847601  0.78910120    -0.15800
F1674       F  0.58558765  0.66207395  0.71561071    -0.14400
F1675       F  0.58353423  0.59309465  0.70149733    -0.14400
F1676       F  0.61091368  0.56698257  0.81202592    -0.15800
C1677       C  0.56446793  0.85119487  0.78599166     0.14200
C1678       C  0.56675691  0.87448405  0.76325796     0.01200
C1679       C  0.55522500  0.87270788  0.73839753     0.16200
C1680       C  0.54189180  0.84757903  0.73605910     0.25600
C1681       C  0.53974125  0.82402266  0.75871463    -0.40700
C1682       C  0.55101244  0.82647226  0.78391766     0.32600
C1683       C  0.58150449  0.89994511  0.76536828     0.01300
F1684       F  0.55671586  0.89559769  0.71655307    -0.13100
F1685       F  0.54939828  0.80437816  0.80638456    -0.13600
C1686       C  0.59491559  0.90248314  0.74311389     0.16200
C1687       C  0.60928490  0.92550325  0.74570684     0.25600
C1688       C  0.61064240  0.94593182  0.77080046    -0.40700
C1689       C  0.59732816  0.94336396  0.79311312     0.32600
C1690       C  0.58276145  0.92080856  0.79028866     0.14300
F1691       F  0.59440269  0.88198280  0.71926029    -0.13000
F1692       F  0.59818183  0.96333561  0.81729645    -0.13600
F1693       F  0.62218365  0.92710664  0.72410695    -0.15800
F1694       F  0.56973105  0.91963867  0.81172771    -0.14400
F1695       F  0.57566759  0.85174564  0.80993935    -0.14400
F1696       F  0.53083904  0.84678361  0.71196217    -0.15800
C1697       C  0.81546535  0.71494090  0.84187732     0.14200
C1698       C  0.82497586  0.71613259  0.86862585     0.01200
C1699       C  0.84236388  0.73115624  0.86968112     0.16200
C1700       C  0.85039913  0.74398209  0.84398261     0.25600
C1701       C  0.84091569  0.74308712  0.81664872    -0.40700
C1702       C  0.82337931  0.72745003  0.81615752     0.32600
C1703       C  0.81723032  0.69870231  0.89447828     0.01300
F1704       F  0.85208345  0.73144591  0.89522650    -0.13100
F1705       F  0.81432827  0.72113888  0.79063692    -0.13600
C1706       C  0.81550131  0.66382241  0.89392051     0.16200
C1707       C  0.80620066  0.64723598  0.91650958     0.25600
C1708       C  0.79842765  0.66528745  0.93995947    -0.40700
C1709       C  0.80065872  0.70010850  0.94101242     0.32600
C1710       C  0.81010202  0.71669984  0.91846017     0.14300
F1711       F  0.82254652  0.64593717  0.87111329    -0.13000
F1712       F  0.79312306  0.71806724  0.96335271    -0.13600
F1713       F  0.80446340  0.61357486  0.91528296    -0.15800
F1714       F  0.81161498  0.75039702  0.91935089    -0.14400
F1715       F  0.79872872  0.69990639  0.84036967    -0.14400
F1716       F  0.86807703  0.75474620  0.84562069    -0.15800
C1717       C  0.81169169  0.82774753  0.61472327     0.14200
C1718       C  0.80891653  0.79804824  0.63045961     0.01200
C1719       C  0.79405713  0.77723003  0.62295532     0.16200
C1720       C  0.78194042  0.78628878  0.60039961     0.25600
C1721       C  0.78461097  0.81612535  0.58489751    -0.40700
C1722       C  0.79966715  0.83664146  0.59197616     0.32600
C1723       C  0.82054795  0.79006401  0.65625529     0.01300
F1724       F  0.79084162  0.74887937  0.63837924    -0.13100
F1725       F  0.80232697  0.86577078  0.57745127    -0.13600
C1726       C  0.81906738  0.80933393  0.68200779     0.16200
C1727       C  0.82886688  0.80063163  0.70730011     0.25600
C1728       C  0.84041000  0.77253929  0.70728281    -0.40700
C1729       C  0.84246194  0.75395456  0.68117772     0.32600
C1730       C  0.83244842  0.76249556  0.65587209     0.14300
F1731       F  0.80759686  0.83596247  0.68294298    -0.13000
F1732       F  0.85349785  0.72674002  0.68056962    -0.13600
F1733       F  0.82699235  0.81958979  0.73196436    -0.15800
F1734       F  0.83415596  0.74367535  0.63110768    -0.14400
F1735       F  0.82586123  0.84835901  0.62179521    -0.14400
F1736       F  0.76727960  0.76647815  0.59419392    -0.15800
C1737       C  0.17802415  0.85234875  0.87621080     0.14200
C1738       C  0.17853310  0.81853014  0.86789856     0.01200
C1739       C  0.19044085  0.79684454  0.88294546     0.16200
C1740       C  0.20218323  0.80905127  0.90494345     0.25600
C1741       C  0.20228874  0.84310808  0.91209309    -0.40700
C1742       C  0.18988556  0.86454809  0.89804152     0.32600
C1743       C  0.16825306  0.80660760  0.84157768     0.01300
F1744       F  0.19129842  0.76412178  0.87542150    -0.13100
F1745       F  0.18938742  0.89733735  0.90539972    -0.13600
C1746       C  0.17148760  0.82161727  0.81410659     0.16200
C1747       C  0.16357127  0.80854409  0.78852769     0.25600
C1748       C  0.15238263  0.77990992  0.78976750    -0.40700
C1749       C  0.14829051  0.76593712  0.81735621     0.32600
C1750       C  0.15624792  0.77906414  0.84309274     0.14300
F1751       F  0.18293721  0.84826998  0.81184076    -0.13000
F1752       F  0.13710587  0.73894155  0.81928682    -0.13600
F1753       F  0.16681857  0.82403066  0.76245627    -0.15800
F1754       F  0.15236082  0.76474545  0.86944709    -0.14400
F1755       F  0.16616645  0.87361091  0.86291181    -0.14400
F1756       F  0.21376983  0.78781060  0.91885338    -0.15800
C1757       C  0.20523741  0.73109244  0.59596365     0.14200
C1758       C  0.19230763  0.71103224  0.61083019     0.01200
C1759       C  0.19035876  0.67741163  0.60227666     0.16200
C1760       C  0.20161254  0.66381455  0.58030825     0.25600
C1761       C  0.21476647  0.68367894  0.56607140    -0.40700
C1762       C  0.21625715  0.71753860  0.57357691     0.32600
C1763       C  0.18128585  0.72442272  0.63591728     0.01300
F1764       F  0.17747252  0.65771552  0.61518585    -0.13100
F1765       F  0.22864571  0.73725306  0.55952553    -0.13600
C1766       C  0.17048534  0.75320629  0.63294521     0.16200
C1767       C  0.15932356  0.76440855  0.65623975     0.25600
C1768       C  0.15839888  0.74650253  0.68313821    -0.40700
C1769       C  0.16995814  0.71838201  0.68608713     0.32600
C1770       C  0.18125019  0.70774208  0.66302854     0.14300
F1771       F  0.17025908  0.77006996  0.60704888    -0.13000
F1772       F  0.17008738  0.70050663  0.71146242    -0.13600
F1773       F  0.14958945  0.79255622  0.65162891    -0.15800
F1774       F  0.19221855  0.68084719  0.66726943    -0.14400
F1775       F  0.20764904  0.76348366  0.60375187    -0.14400
F1776       F  0.19970694  0.63119558  0.57289762    -0.15800
C1777       C  0.05614957  0.89618197  0.72241923     0.14200
C1778       C  0.06766439  0.89211636  0.74679617     0.01200
C1779       C  0.06458289  0.91073388  0.77254212     0.16200
C1780       C  0.05000021  0.93345296  0.77380348     0.25600
C1781       C  0.03842734  0.93774303  0.74919197    -0.40700
C1782       C  0.04164033  0.91865944  0.72355102     0.32600
C1783       C  0.08197253  0.86645469  0.74549915     0.01300
F1784       F  0.07561699  0.90672762  0.79639039    -0.13100
F1785       F  0.03056043  0.92124293  0.69958360    -0.13600
C1786       C  0.09968277  0.87416664  0.73526547     0.16200
C1787       C  0.11247291  0.84871861  0.73050341     0.25600
C1788       C  0.10759075  0.81532876  0.73587489    -0.40700
C1789       C  0.08986240  0.80790132  0.74645211     0.32600
C1790       C  0.07716028  0.83330561  0.75117496     0.14300
F1791       F  0.10441287  0.90620970  0.72940340    -0.13000
F1792       F  0.08457620  0.77593939  0.75127422    -0.13600
F1793       F  0.12966306  0.85672123  0.72113752    -0.15800
F1794       F  0.05992055  0.82554210  0.76049020    -0.14400
F1795       F  0.05887725  0.87793818  0.69753512    -0.23200
F1796       F  0.04741364  0.95150374  0.79882180    -0.15800
C1797       C  0.06160431  0.60945546  0.72455278     0.14200
C1798       C  0.06207973  0.63289018  0.74771450     0.01200
C1799       C  0.04914592  0.63006767  0.77065119     0.16200
C1800       C  0.03607828  0.60425872  0.77047359     0.25600
C1801       C  0.03547604  0.58103322  0.74707448    -0.40700
C1802       C  0.04837527  0.58403657  0.72409390     0.32600
C1803       C  0.07607867  0.66011252  0.74753620     0.01300
F1804       F  0.04886846  0.65278630  0.79288608    -0.13100
F1805       F  0.04855452  0.56175849  0.70151484    -0.13600
C1806       C  0.07775608  0.68088676  0.72277213     0.16200
C1807       C  0.09219388  0.70381431  0.72074844     0.25600
C1808       C  0.10518144  0.70679791  0.74357193    -0.40700
C1809       C  0.10290942  0.68768984  0.76917547     0.32600
C1810       C  0.08851096  0.66435940  0.77111715     0.14300
F1811       F  0.06548636  0.67867840  0.70029347    -0.13000
F1812       F  0.11515111  0.69036219  0.79160945    -0.13600
F1813       F  0.09362417  0.72300976  0.69624868    -0.15800
F1814       F  0.08727471  0.64479844  0.79538882    -0.14400
F1815       F  0.07425947  0.61076823  0.70254903    -0.14400
F1816       F  0.02369908  0.60255550  0.79285146    -0.15800
C1817       C  0.91786587  0.67978693  0.76493779     0.14200
C1818       C  0.91568217  0.65194371  0.74648141     0.01200
C1819       C  0.90001489  0.64945540  0.72841717     0.16200
C1820       C  0.88640583  0.67405656  0.72955316     0.25600
C1821       C  0.88838436  0.70131764  0.74867090    -0.40700
C1822       C  0.90424986  0.70417238  0.76618675     0.32600
C1823       C  0.92965822  0.62532909  0.74654400     0.01300
F1824       F  0.89754785  0.62247813  0.71072222    -0.13100
F1825       F  0.90617585  0.72996176  0.78540190    -0.13600
C1826       C  0.93310615  0.60703096  0.77229753     0.16200
C1827       C  0.94678649  0.58258091  0.77262002     0.25600
C1828       C  0.95730818  0.57613187  0.74713828    -0.40700
C1829       C  0.95359142  0.59437412  0.72126988     0.32600
C1830       C  0.93989325  0.61867970  0.72103908     0.14300
F1831       F  0.92305910  0.61265204  0.79706490    -0.13000
F1832       F  0.96344050  0.58928126  0.69622031    -0.13600
F1833       F  0.94952599  0.56500623  0.79775241    -0.15800
F1834       F  0.93692329  0.63639769  0.69605364    -0.14400
F1835       F  0.93307556  0.68303551  0.78208178    -0.14400
F1836       F  0.87091636  0.67047270  0.71316203    -0.15800
C1837       C  0.90003395  0.86704339  0.76522056     0.14200
C1838       C  0.91684209  0.85929005  0.75151649     0.01200
C1839       C  0.91970668  0.82685721  0.74086824     0.16200
C1840       C  0.90614345  0.80236567  0.74437973     0.25600
C1841       C  0.88940431  0.80983701  0.75868231    -0.40700
C1842       C  0.88642347  0.84263536  0.76869437     0.32600
C1843       C  0.93171339  0.88459536  0.74990767     0.01300
F1844       F  0.93594852  0.81855989  0.72802828    -0.13100
F1845       F  0.87017958  0.85135181  0.78128885    -0.13600
C1846       C  0.93915044  0.89767993  0.77599860     0.16200
C1847       C  0.95289173  0.92203600  0.77505437     0.25600
C1848       C  0.95960252  0.93401504  0.74782343    -0.40700
C1849       C  0.95234446  0.92027446  0.72158836     0.32600
C1850       C  0.93853851  0.89577821  0.72267160     0.14300
F1851       F  0.93321246  0.88648248  0.80258419    -0.13000
F1852       F  0.95847955  0.93056901  0.69484788    -0.13600
F1853       F  0.95956238  0.93380414  0.80102984    -0.15800
F1854       F  0.93156801  0.88342466  0.69710783    -0.14400
F1855       F  0.89678932  0.89842446  0.77516357    -0.14400
F1856       F  0.90978385  0.77106995  0.73470302    -0.15800
loop_ 
_geom_bond_atom_site_label_1 
_geom_bond_atom_site_label_2 
_geom_bond_distance 
_geom_bond_site_symmetry_2 
_ccdc_geom_bond_type 
O1            V9   1.908   1_455  S
O1           C11   1.267       .  A
O2          V937   1.903       .  S
O2           C12   1.267       .  A
O3            V9   1.899       .  S
O3           C13   1.265       .  A
O4          V937   1.895   1_455  S
O4           C14   1.263       .  A
O5           V10   1.909   1_455  S
O5           C14   1.268       .  A
O6          V938   1.912       .  S
O6           C13   1.268       .  A
O7           V10   1.887       .  S
O7           C12   1.261       .  A
O8          V938   1.891   1_455  S
O8           C11   1.262       .  A
V9          O930   1.905       .  S
V9          O932   1.902   1_655  S
V9          V938   2.083       .  T
V10         O934   1.913   1_545  S
V10         O936   1.881   1_645  S
V10         V937   2.084       .  T
C11         C853   1.487       .  S
C12         C900   1.478       .  S
C13         C920   1.493       .  S
C14         C873   1.485       .  S
C15          C16   1.536       .  S
C15          C21   1.534       .  S
C15          C19   1.553       .  S
C15         C840   1.542       .  S
C16          H23   1.087       .  S
C16          C17   1.363       .  D
C17          C18   1.538       .  S
C17         C880   1.478       .  S
C18          C22   1.538       .  S
C18          C20   1.535       .  S
C18          H24   1.111       .  S
C19          H25   1.076       .  S
C19          C20   1.370       .  D
C20         C860   1.484       .  S
C21          H26   1.087       .  S
C21          C22   1.365       .  D
C22         C820   1.480       .  S
C27          C28   1.531       .  S
C27          C33   1.534       .  S
C27          C31   1.555       .  S
C27         C773   1.542       .  S
C28          H35   1.087       .  S
C28          C29   1.359       .  D
C29          C30   1.536       .  S
C29         C893   1.472       .  S
C30          C34   1.541       .  S
C30          C32   1.539       .  S
C30          H36   1.109       .  S
C31          H37   1.076       .  S
C31          C32   1.374       .  D
C32         C913   1.496       .  S
C33          H38   1.086       .  S
C33          C34   1.366       .  D
C34         C800   1.486       .  S
C39          C40   1.529       .  S
C39         C973   1.530   1_545  S
C39         C971   1.552   1_545  S
C39         C693   1.534       .  S
C40          H47   1.086       .  S
C40          C41   1.365       .  D
C41         C970   1.545   1_545  S
C41         C733   1.493       .  S
C42          C46   1.547       .  S
C42          C44   1.532       .  S
C42         C969   1.549       .  S
C42          H48   1.109       .  S
C43         C967   1.551       .  S
C43          H49   1.081       .  S
C43          C44   1.367       .  D
C44         C760   1.480       .  S
C45         C967   1.530       .  S
C45          H50   1.087       .  S
C45          C46   1.364       .  D
C46         C720   1.481       .  S
O51          V59   1.913       .  S
O51          C61   1.269       .  A
O52          V59   1.911       .  S
O52          C62   1.268       .  A
O53          V59   1.896       .  S
O53          C63   1.262       .  A
O54          V59   1.892       .  S
O54          C64   1.263       .  A
O55          V60   1.914       .  S
O55          C64   1.269       .  A
O56          V60   1.912       .  S
O56          C63   1.268       .  A
O57          V60   1.890       .  S
O57          C62   1.262       .  A
O58          V60   1.886       .  S
O58          C61   1.261       .  A
V59          V60   2.082       .  T
C61         C680   1.487       .  S
C62         C753   1.483       .  S
C63         C740   1.476       .  S
C64         C653   1.489       .  S
C65          C66   1.528       .  S
C65         C999   1.540   1_545  S
C65         C997   1.549   1_545  S
C65         C633   1.536       .  S
C66          H73   1.087       .  S
C66          C67   1.362       .  D
C67         C996   1.542   1_545  S
C67         C673   1.486       .  S
C68          C72   1.546       .  S
C68          C70   1.537       .  S
C68         C995   1.547       .  S
C68          H74   1.110       .  S
C69         C993   1.551       .  S
C69          H75   1.080       .  S
C69          C70   1.371       .  D
C70         C660   1.481       .  S
C71         C993   1.535       .  S
C71          H76   1.086       .  S
C71          C72   1.367       .  D
C72         C613   1.493       .  S
N77          C82   1.355       .  A
N77          C81   1.352       .  A
N77         H109   1.039       .  S
N78          C85   1.352   1_556  A
N78          C86   1.353       .  A
N79          C84   1.354       .  A
N79          C83   1.356       .  A
N79         H110   1.039       .  S
N80          C87   1.352   1_556  A
N80          C88   1.349       .  A
C81          C89   1.387       .  A
C81          C97   1.413       .  A
C82          C98   1.416       .  A
C82          C90   1.387       .  A
C83          C91   1.388       .  A
C83         C100   1.422       .  A
C84          C99   1.417       .  A
C84          C92   1.387       .  A
C85          C97   1.413       .  A
C85          C93   1.385       .  A
C86         C100   1.417       .  A
C86          C94   1.387       .  A
C87          C95   1.386       .  A
C87          C98   1.412       .  A
C88          C96   1.387       .  A
C88          C99   1.411       .  A
C89          C90   1.373       .  A
C89         H101   1.082       .  S
C90         H102   1.082       .  S
C91          C92   1.377       .  A
C91         H103   1.082       .  S
C92         H104   1.082       .  S
C93          C94   1.375   1_554  A
C93         H105   1.082       .  S
C94         H106   1.082       .  S
C95          C96   1.371   1_554  A
C95         H107   1.082       .  S
C96         H108   1.082       .  S
C97         C593   1.483       .  S
C98         C573   1.493       .  S
C99         C813   1.482       .  S
C100        C620   1.501       .  S
O111        V119   1.895       .  S
O111        C121   1.263       .  A
O112       V1047   1.899   1_655  S
O112        C122   1.263       .  A
O113        V119   1.909   1_655  S
O113        C123   1.267       .  A
O114       V1047   1.908       .  S
O114        C124   1.267       .  A
O115       V1048   1.891       .  S
O115        C124   1.263       .  A
O116        V120   1.894   1_655  S
O116        C123   1.263       .  A
O117       V1048   1.903   1_655  S
O117        C122   1.265       .  A
O118        V120   1.900       .  S
O118        C121   1.266       .  A
V119       O1040   1.897   1_445  S
V119       O1042   1.914   1_545  S
V119        V120   2.085       .  T
V120       O1043   1.889   1_545  S
V120       O1045   1.902   1_445  S
C121        C513   1.479       .  S
C122        C553   1.474       .  S
C123        C540   1.487       .  S
C124        C500   1.487       .  S
C125        C126   1.538       .  S
C125        C131   1.530       .  S
C125        C129   1.552       .  S
C125        C480   1.535       .  S
C126        H133   1.086       .  S
C126        C127   1.365       .  D
C127        C128   1.538       .  S
C127        C580   1.482       .  S
C128        C132   1.531       .  S
C128        C130   1.535       .  S
C128        H134   1.110       .  S
C129        H135   1.080       .  S
C129        C130   1.373       .  D
C130        C493   1.486       .  S
C131        H136   1.087       .  S
C131        C132   1.359       .  D
C132        C520   1.470       .  S
C137        C138   1.529       .  S
C137        C143   1.531       .  S
C137        C141   1.551       .  S
C137        C433   1.539       .  S
C138        H145   1.085       .  S
C138        C139   1.369       .  D
C139        C140   1.553       .  S
C139        C453   1.501       .  S
C140        C144   1.545       .  S
C140        C142   1.534       .  S
C140        H146   1.107       .  S
C141        H147   1.078       .  S
C141        C142   1.370       .  D
C142        C533   1.481       .  S
C143        H148   1.086       .  S
C143        C144   1.362       .  D
C144        C560   1.499       .  S
C149        C150   1.538       .  S
C149        C155   1.535   1_565  S
C149       C1081   1.555       .  S
C149        C380   1.542   1_565  S
C150        H157   1.086       .  S
C150       C1079   1.370       .  D
C151        C152   1.543       .  S
C151       C1078   1.368       .  D
C151        C353   1.494       .  S
C152        C154   1.538       .  S
C152       C1084   1.533       .  S
C152        H158   1.109       .  S
C153       C1077   1.551       .  S
C153        H159   1.079       .  S
C153        C154   1.373       .  D
C154        C413   1.485       .  S
C155        H160   1.087       .  S
C155        C156   1.356       .  D
C156       C1080   1.533   1_545  S
C156        C400   1.470       .  S
C161        C162   1.535       .  S
C161        C167   1.538       .  S
C161       C1093   1.552       .  S
C161        C600   1.542       .  S
C162        H169   1.087       .  S
C162       C1091   1.364       .  D
C163        C164   1.542       .  S
C163       C1090   1.364       .  D
C163        C300   1.483   1_565  S
C164        C166   1.535   1_565  S
C164       C1096   1.541       .  S
C164        H170   1.111       .  S
C165       C1089   1.551   1_545  S
C165        H171   1.080       .  S
C165        C166   1.369       .  D
C166        C340   1.484       .  S
C167        H172   1.086       .  S
C167        C168   1.366       .  D
C168       C1092   1.541       .  S
C168        C320   1.487       .  S
O173        V181   1.891       .  S
O173        C183   1.263       .  A
O174        V181   1.892       .  S
O174        C184   1.263       .  A
O175        V181   1.902       .  S
O175        C185   1.266       .  A
O176        V181   1.901       .  S
O176        C186   1.265       .  A
O177        V182   1.893       .  S
O177        C186   1.263       .  A
O178        V182   1.900       .  S
O178        C185   1.264       .  A
O179        V182   1.910       .  S
O179        C184   1.267       .  A
O180        V182   1.912       .  S
O180        C183   1.268       .  A
V181        V182   2.084       .  T
C183        C420   1.490       .  S
C184        C333   1.482       .  S
C185        C313   1.490       .  S
C186        C393   1.479       .  S
N187        C192   1.351       .  A
N187        C191   1.354       .  A
N187        H219   1.037       .  S
N188        C195   1.353   1_554  A
N188        C196   1.350       .  A
N189        C194   1.357       .  A
N189        C193   1.355       .  A
N189        H220   1.038       .  S
N190        C197   1.351   1_554  A
N190        C198   1.352       .  A
C191        C199   1.388       .  A
C191        C207   1.415       .  A
C192        C208   1.414       .  A
C192        C200   1.388       .  A
C193        C201   1.388       .  A
C193        C210   1.420       .  A
C194        C209   1.419       .  A
C194        C202   1.386       .  A
C195        C207   1.412       .  A
C195        C203   1.385   1_556  A
C196        C210   1.415       .  A
C196        C204   1.388       .  A
C197        C205   1.386       .  A
C197        C208   1.412       .  A
C198        C206   1.386       .  A
C198        C209   1.413       .  A
C199        C200   1.372       .  A
C199        H211   1.082       .  S
C200        H212   1.082       .  S
C201        C202   1.377       .  A
C201        H213   1.082       .  S
C202        H214   1.082       .  S
C203        C204   1.373       .  A
C203        H215   1.082   1_554  S
C204        H216   1.082       .  S
C205        C206   1.372   1_556  A
C205        H217   1.082       .  S
C206        H218   1.082       .  S
C207        C780   1.487       .  S
C208        C700   1.478       .  S
C209        C373   1.493       .  S
C210        C460   1.488       .  S
N221        C226   1.355       .  A
N221        C225   1.353       .  A
N221        H253   1.040       .  S
N222        C229   1.351       .  A
N222        C230   1.353       .  A
N223        C228   1.352       .  A
N223        C227   1.353       .  A
N223        H254   1.040       .  S
N224        C231   1.353       .  A
N224        C232   1.352       .  A
C225        C233   1.388       .  A
C225        C241   1.418       .  A
C226        C242   1.419       .  A
C226        C234   1.387       .  A
C227        C235   1.387       .  A
C227        C244   1.415       .  A
C228        C243   1.416       .  A
C228        C236   1.388       .  A
C229        C241   1.414       .  A
C229        C237   1.387       .  A
C230        C244   1.413       .  A
C230        C238   1.385       .  A
C231        C239   1.386       .  A
C231        C242   1.415       .  A
C232        C240   1.387       .  A
C232        C243   1.415       .  A
C233        C234   1.376       .  A
C233        H245   1.082       .  S
C234        H246   1.082       .  S
C235        C236   1.375       .  A
C235        H247   1.082       .  S
C236        H248   1.082       .  S
C237        C238   1.373       .  A
C237        H249   1.082       .  S
C238        H250   1.082       .  S
C239        C240   1.373       .  A
C239        H251   1.082       .  S
C240        H252   1.082       .  S
C241        C473   1.483       .  S
C242        C293   1.492       .  S
C243        C640   1.483       .  S
C244        C833   1.487       .  S
N255        C260   1.354       .  A
N255        C259   1.354       .  A
N255        H287   1.037       .  S
N256        C263   1.351       .  A
N256        C264   1.350       .  A
N257        C262   1.354       .  A
N257        C261   1.354       .  A
N257        H288   1.037       .  S
N258        C265   1.350       .  A
N258        C266   1.351       .  A
C259        C267   1.387       .  A
C259        C275   1.417       .  A
C260        C276   1.416       .  A
C260        C268   1.387       .  A
C261        C269   1.387       .  A
C261        C278   1.416       .  A
C262        C277   1.417       .  A
C262        C270   1.387       .  A
C263        C275   1.412       .  A
C263        C271   1.386       .  A
C264        C278   1.412       .  A
C264        C272   1.387       .  A
C265        C273   1.386       .  A
C265        C276   1.411       .  A
C266        C274   1.386       .  A
C266        C277   1.411       .  A
C267        C268   1.375       .  A
C267        H279   1.082       .  S
C268        H280   1.082       .  S
C269        C270   1.374       .  A
C269        H281   1.082       .  S
C270        H282   1.082       .  S
C271        C272   1.372       .  A
C271        H283   1.082       .  S
C272        H284   1.082       .  S
C273        C274   1.371       .  A
C273        H285   1.082       .  S
C274        H286   1.082       .  S
C275        C793   1.487       .  S
C276        C713   1.482       .  S
C277        C360   1.486       .  S
C278        C440   1.482       .  S
C289        C290   1.407       .  A
C289        C294   1.402       .  A
C289        F307   1.358       .  S
C290        C295   1.487       .  S
C290        C291   1.407       .  A
C291        C292   1.403       .  A
C291        F296   1.358       .  S
C292        C293   1.405       .  A
C292        F308   1.358       .  S
C293        C294   1.405       .  A
C294        F297   1.357       .  S
C295        C298   1.408       .  A
C295        C302   1.405       .  A
C298        C299   1.406   1_545  A
C298        F303   1.357   1_545  S
C299        C300   1.404   1_565  A
C299       F1233   1.357       .  S
C300        C301   1.406       .  A
C301        C302   1.400       .  A
C301        F304   1.358       .  S
C302        F306   1.358       .  S
F305       C1227   1.358       .  S
C309        C310   1.401       .  A
C309        C314   1.401       .  A
C309        F327   1.358       .  S
C310        C315   1.477       .  S
C310        C311   1.402       .  A
C311        C312   1.399       .  A
C311        F316   1.358       .  S
C312        C313   1.411       .  A
C312        F328   1.358       .  S
C313        C314   1.414       .  A
C314        F317   1.358       .  S
C315        C318   1.403       .  A
C315        C322   1.403       .  A
C318        C319   1.401       .  A
C318        F323   1.358       .  S
C319        C320   1.409       .  A
C319        F325   1.357       .  S
C320        C321   1.408       .  A
C321        C322   1.400       .  A
C321        F324   1.358       .  S
C322        F326   1.358       .  S
C329        C330   1.404       .  A
C329        C334   1.397       .  A
C329        F347   1.358       .  S
C330        C335   1.484       .  S
C330        C331   1.407       .  A
C331        C332   1.403       .  A
C331        F336   1.358       .  S
C332        C333   1.409       .  A
C332        F348   1.358       .  S
C333        C334   1.409       .  A
C334        F337   1.358       .  S
C335        C338   1.406       .  A
C335        C342   1.405       .  A
C338        C339   1.399       .  A
C338        F343   1.358       .  S
C339        C340   1.407       .  A
C339        F345   1.358       .  S
C340        C341   1.406       .  A
C341        C342   1.400       .  A
C341        F344   1.357       .  S
C342        F346   1.358       .  S
C349        C350   1.406       .  A
C349        C354   1.398       .  A
C349        F367   1.358       .  S
C350        C355   1.485       .  S
C350        C351   1.405       .  A
C351        C352   1.398       .  A
C351        F356   1.358       .  S
C352        C353   1.411       .  A
C352        F368   1.356       .  S
C353        C354   1.412       .  A
C354        F357   1.358       .  S
C355        C358   1.408       .  A
C355        C362   1.409       .  A
C358        C359   1.399       .  A
C358        F363   1.358       .  S
C359        C360   1.405       .  A
C359        F365   1.358       .  S
C360        C361   1.403       .  A
C361        C362   1.397       .  A
C361        F364   1.358       .  S
C362        F366   1.358       .  S
C369        C370   1.405       .  A
C369        C374   1.402       .  A
C369        F387   1.357       .  S
C370        C375   1.485       .  S
C370        C371   1.407       .  A
C371        C372   1.402       .  A
C371        F376   1.358       .  S
C372        C373   1.406       .  A
C372        F388   1.358       .  S
C373        C374   1.406       .  A
C374        F377   1.357       .  S
C375        C378   1.399       .  A
C375        C382   1.404   1_545  A
C378        C379   1.397       .  A
C378       F1311   1.358       .  S
C379        C380   1.418       .  A
C379       F1313   1.358       .  S
C380        C381   1.417   1_545  A
C381        C382   1.406       .  A
C381        F384   1.354       .  S
C382        F386   1.358       .  S
F383       C1306   1.358       .  S
F385       C1307   1.359       .  S
C389        C390   1.404       .  A
C389        C394   1.397       .  A
C389        F407   1.358       .  S
C390        C395   1.476       .  S
C390        C391   1.402       .  A
C391        C392   1.398       .  A
C391        F396   1.358       .  S
C392        C393   1.410       .  A
C392        F408   1.358       .  S
C393        C394   1.408       .  A
C394        F397   1.358       .  S
C395        C398   1.407       .  A
C395        C402   1.404       .  A
C398        C399   1.399       .  A
C398        F403   1.358       .  S
C399        C400   1.401       .  A
C399        F405   1.358       .  S
C400        C401   1.404       .  A
C401        C402   1.395       .  A
C401        F404   1.358       .  S
C402        F406   1.358       .  S
C409        C410   1.404       .  A
C409        C414   1.401       .  A
C409        F427   1.358       .  S
C410        C415   1.477       .  S
C410        C411   1.402       .  A
C411        C412   1.398       .  A
C411        F416   1.358       .  S
C412        C413   1.407       .  A
C412        F428   1.357       .  S
C413        C414   1.408       .  A
C414        F417   1.358       .  S
C415        C418   1.403       .  A
C415        C422   1.400       .  A
C418        C419   1.404       .  A
C418        F423   1.358       .  S
C419        C420   1.412       .  A
C419        F425   1.357       .  S
C420        C421   1.414       .  A
C421        C422   1.397       .  A
C421        F424   1.358       .  S
C422        F426   1.358       .  S
C429        C430   1.398       .  A
C429        C434   1.394       .  A
C429        F447   1.358       .  S
C430        C435   1.478       .  S
C430        C431   1.402       .  A
C431        C432   1.403       .  A
C431        F436   1.358       .  S
C432        C433   1.419       .  A
C432        F448   1.351       .  S
C433        C434   1.418       .  A
C434        F437   1.359       .  S
C435        C438   1.405       .  A
C435        C442   1.406       .  A
C438        C439   1.399       .  A
C438        F443   1.358       .  S
C439        C440   1.403       .  A
C439        F445   1.357       .  S
C440        C441   1.403       .  A
C441        C442   1.397       .  A
C441        F444   1.358       .  S
C442        F446   1.358       .  S
C449        C450   1.406       .  A
C449        C454   1.402       .  A
C449        F467   1.358       .  S
C450        C455   1.489       .  S
C450        C451   1.404       .  A
C451        C452   1.399       .  A
C451        F456   1.358       .  S
C452        C453   1.414       .  A
C452        F468   1.358       .  S
C453        C454   1.412       .  A
C454        F457   1.356       .  S
C455        C458   1.410       .  A
C455        C462   1.408       .  A
C458        C459   1.400       .  A
C458        F463   1.358       .  S
C459        C460   1.403       .  A
C459        F465   1.358       .  S
C460        C461   1.405       .  A
C461        C462   1.400       .  A
C461        F464   1.358       .  S
C462        F466   1.358       .  S
C469        C470   1.406       .  A
C469        C474   1.397       .  A
C469        F487   1.358       .  S
C470        C475   1.479       .  S
C470        C471   1.405       .  A
C471        C472   1.400       .  A
C471        F476   1.358       .  S
C472        C473   1.404       .  A
C472        F488   1.357       .  S
C473        C474   1.403       .  A
C474        F477   1.358       .  S
C475        C478   1.401       .  A
C475        C482   1.399       .  A
C478        C479   1.401       .  A
C478        F483   1.358       .  S
C479        C480   1.419       .  A
C479        F485   1.353       .  S
C480        C481   1.418       .  A
C481        C482   1.395       .  A
C481        F484   1.358       .  S
C482        F486   1.358       .  S
C489        C490   1.403       .  A
C489        C494   1.398       .  A
C489        F507   1.358       .  S
C490        C495   1.481       .  S
C490        C491   1.406       .  A
C491        C492   1.399       .  A
C491        F496   1.358       .  S
C492        C493   1.407       .  A
C492        F508   1.357       .  S
C493        C494   1.409       .  A
C494        F497   1.356       .  S
C495        C498   1.402       .  A
C495        C502   1.405       .  A
C498        C499   1.396       .  A
C498        F503   1.358       .  S
C499        C500   1.412       .  A
C499        F505   1.358       .  S
C500        C501   1.411       .  A
C501        C502   1.401       .  A
C501        F504   1.358       .  S
C502        F506   1.358       .  S
C509        C510   1.406       .  A
C509        C514   1.395       .  A
C509        F527   1.358       .  S
C510        C515   1.481       .  S
C510        C511   1.405       .  A
C511        C512   1.400       .  A
C511        F516   1.358       .  S
C512        C513   1.410       .  A
C512        F528   1.358       .  S
C513        C514   1.406       .  A
C514        F517   1.358       .  S
C515        C518   1.410       .  A
C515        C522   1.406       .  A
C518        C519   1.401       .  A
C518        F523   1.357       .  S
C519        C520   1.401       .  A
C519        F525   1.358       .  S
C520        C521   1.403       .  A
C521        C522   1.393       .  A
C521        F524   1.358       .  S
C522        F526   1.358       .  S
C529        C530   1.405       .  A
C529        C534   1.399       .  A
C529        F547   1.358       .  S
C530        C535   1.481       .  S
C530        C531   1.406       .  A
C531        C532   1.400       .  A
C531        F536   1.358       .  S
C532        C533   1.406       .  A
C532        F548   1.358       .  S
C533        C534   1.405       .  A
C534        F537   1.358       .  S
C535        C538   1.402       .  A
C535        C542   1.405       .  A
C538        C539   1.397       .  A
C538        F543   1.358       .  S
C539        C540   1.412       .  A
C539        F545   1.358       .  S
C540        C541   1.411       .  A
C541        C542   1.402       .  A
C541        F544   1.358       .  S
C542        F546   1.358       .  S
C549        C550   1.408       .  A
C549        C554   1.400       .  A
C549        F567   1.358       .  S
C550        C555   1.489       .  S
C550        C551   1.410       .  A
C551        C552   1.400       .  A
C551        F556   1.358       .  S
C552        C553   1.403       .  A
C552        F568   1.358       .  S
C553        C554   1.405       .  A
C554        F557   1.358       .  S
C555        C558   1.409       .  A
C555        C562   1.403       .  A
C558        C559   1.405       .  A
C558        F563   1.358       .  S
C559        C560   1.409       .  A
C559        F565   1.357       .  S
C560        C561   1.415       .  A
C561        C562   1.395       .  A
C561        F564   1.358       .  S
C562        F566   1.358       .  S
C569        C570   1.407       .  A
C569        C574   1.400       .  A
C569        F587   1.358       .  S
C570        C575   1.486       .  S
C570        C571   1.408       .  A
C571        C572   1.397       .  A
C571        F576   1.358       .  S
C572        C573   1.405       .  A
C572        F588   1.358       .  S
C573        C574   1.408       .  A
C574        F577   1.358       .  S
C575        C578   1.408       .  A
C575        C582   1.407       .  A
C578        C579   1.399       .  A
C578        F583   1.358       .  S
C579        C580   1.406       .  A
C579        F585   1.358       .  S
C580        C581   1.406       .  A
C581        C582   1.398       .  A
C581        F584   1.357       .  S
C582        F586   1.358       .  S
C589        C590   1.405       .  A
C589        C594   1.400       .  A
C589        F607   1.358       .  S
C590        C595   1.476       .  S
C590        C591   1.404       .  A
C591        C592   1.398       .  A
C591        F596   1.358       .  S
C592        C593   1.404       .  A
C592        F608   1.358       .  S
C593        C594   1.405       .  A
C594        F597   1.358       .  S
C595        C598   1.398       .  A
C595        C602   1.398       .  A
C598        C599   1.398       .  A
C598        F603   1.358       .  S
C599        C600   1.419       .  A
C599        F605   1.359       .  S
C600        C601   1.421       .  A
C601        C602   1.400       .  A
C601       F1532   1.351       .  S
C602        F606   1.358       .  S
F604       C1529   1.353   1_545  S
C609        C610   1.403       .  A
C609        C614   1.398       .  A
C609        F627   1.358       .  S
C610        C615   1.488       .  S
C610        C611   1.408       .  A
C611        C612   1.407       .  A
C611       F1544   1.357       .  S
C612        C613   1.408       .  A
C612       F1556   1.357       .  S
C613        C614   1.411       .  A
C614        F617   1.358       .  S
C615        C618   1.405       .  A
C615        C622   1.407       .  A
F616       C1539   1.357   1_545  S
C618        C619   1.403       .  A
C618        F623   1.357       .  S
C619        C620   1.410       .  A
C619        F625   1.358       .  S
C620        C621   1.408       .  A
C621        C622   1.401       .  A
C621        F624   1.358       .  S
C622        F626   1.358       .  S
F628       C1540   1.357       .  S
C629        C630   1.401       .  A
C629        C634   1.402       .  A
C629        F647   1.358       .  S
C630        C635   1.479       .  S
C630        C631   1.399       .  A
C631        C632   1.397       .  A
C631        F636   1.358       .  S
C632        C633   1.418       .  A
C632       F1576   1.357       .  S
C633        C634   1.418       .  A
C634        F637   1.355       .  S
C635        C638   1.405       .  A
C635        C642   1.406       .  A
C638        C639   1.398       .  A
C638        F643   1.358       .  S
C639        C640   1.404       .  A
C639        F645   1.358       .  S
C640        C641   1.404       .  A
C641        C642   1.400       .  A
C641        F644   1.358       .  S
C642        F646   1.358       .  S
F648       C1560   1.359       .  S
C649        C650   1.403       .  A
C649        C654   1.398       .  A
C649        F667   1.358       .  S
C650        C655   1.484       .  S
C650        C651   1.406       .  A
C651        C652   1.404       .  A
C651        F656   1.358       .  S
C652        C653   1.410       .  A
C652        F668   1.357       .  S
C653        C654   1.412       .  A
C654        F657   1.358       .  S
C655        C658   1.406       .  A
C655        C662   1.407       .  A
C658        C659   1.402       .  A
C658        F663   1.358       .  S
C659        C660   1.406       .  A
C659        F665   1.358       .  S
C660        C661   1.404       .  A
C661        C662   1.400       .  A
C661        F664   1.358       .  S
C662        F666   1.358       .  S
C669        C670   1.404       .  A
C669        C674   1.401       .  A
C669        F687   1.358       .  S
C670        C675   1.477       .  S
C670        C671   1.402       .  A
C671        C672   1.398       .  A
C671        F676   1.358       .  S
C672        C673   1.409       .  A
C672        F688   1.358       .  S
C673        C674   1.408       .  A
C674        F677   1.357       .  S
C675        C678   1.404       .  A
C675        C682   1.399       .  A
C678        C679   1.401       .  A
C678        F683   1.358       .  S
C679        C680   1.410       .  A
C679        F685   1.358       .  S
C680        C681   1.414       .  A
C681        C682   1.397       .  A
C681        F684   1.358       .  S
C682        F686   1.358       .  S
C689        C690   1.396       .  A
C689        C694   1.395       .  A
C689        F707   1.358       .  S
C690        C695   1.468       .  S
C690        C691   1.397       .  A
C691        C692   1.397   1_545  A
C691        F696   1.358   1_545  S
C692        C693   1.420   1_565  A
C692        F708   1.352       .  S
C693        C694   1.418       .  A
C694        F697   1.358       .  S
C695        C698   1.403       .  A
C695        C702   1.402       .  A
C698        C699   1.395       .  A
C698        F703   1.358       .  S
C699        C700   1.403       .  A
C699        F705   1.358       .  S
C700        C701   1.404       .  A
C701        C702   1.397       .  A
C701        F704   1.358       .  S
C702        F706   1.358   1_545  S
C709        C710   1.408       .  A
C709        C714   1.399       .  A
C709        F727   1.358       .  S
C710        C715   1.484       .  S
C710        C711   1.409       .  A
C711        C712   1.397       .  A
C711        F716   1.358       .  S
C712        C713   1.401       .  A
C712        F728   1.358       .  S
C713        C714   1.403       .  A
C714        F717   1.358       .  S
C715        C718   1.410       .  A
C715        C722   1.405       .  A
C718        C719   1.404       .  A
C718        F723   1.358       .  S
C719        C720   1.403       .  A
C719       F1653   1.357       .  S
C720        C721   1.407       .  A
C721        C722   1.393       .  A
C721        F724   1.358       .  S
C722        F726   1.358       .  S
F725       C1647   1.357   1_545  S
C729        C730   1.408       .  A
C729        C734   1.405       .  A
C729        F747   1.357       .  S
C730        C735   1.486       .  S
C730        C731   1.402       .  A
C731        C732   1.395       .  A
C731        F736   1.358       .  S
C732        C733   1.413       .  A
C732        F748   1.358       .  S
C733        C734   1.407       .  A
C734        F737   1.356       .  S
C735        C738   1.408       .  A
C735        C742   1.406       .  A
C738        C739   1.401       .  A
C738        F743   1.358       .  S
C739        C740   1.404       .  A
C739        F745   1.358       .  S
C740        C741   1.406       .  A
C741        C742   1.401       .  A
C741        F744   1.358       .  S
C742        F746   1.358       .  S
C749        C750   1.404       .  A
C749        C754   1.397       .  A
C749        F767   1.358       .  S
C750        C755   1.483       .  S
C750        C751   1.407       .  A
C751        C752   1.402       .  A
C751        F756   1.358       .  S
C752        C753   1.408       .  A
C752        F768   1.358       .  S
C753        C754   1.410       .  A
C754        F757   1.358       .  S
C755        C758   1.406       .  A
C755        C762   1.407       .  A
C758        C759   1.400       .  A
C758        F763   1.358       .  S
C759        C760   1.406       .  A
C759        F765   1.357       .  S
C760        C761   1.404       .  A
C761        C762   1.399       .  A
C761        F764   1.358       .  S
C762        F766   1.358       .  S
C769        C770   1.399       .  A
C769        C774   1.397       .  A
C769        F787   1.358       .  S
C770        C775   1.480       .  S
C770        C771   1.400       .  A
C771        C772   1.402       .  A
C771        F776   1.358       .  S
C772        C773   1.420       .  A
C772        F788   1.351       .  S
C773        C774   1.419       .  A
C774        F777   1.359       .  S
C775        C778   1.407       .  A
C775        C782   1.404       .  A
C778        C779   1.401       .  A
C778        F783   1.358       .  S
C779        C780   1.404       .  A
C779        F785   1.358       .  S
C780        C781   1.405       .  A
C781        C782   1.399       .  A
C781        F784   1.358       .  S
C782        F786   1.358       .  S
C789        C790   1.404       .  A
C789        C794   1.400       .  A
C789        F807   1.358       .  S
C790        C795   1.477       .  S
C790        C791   1.405       .  A
C791        C792   1.399       .  A
C791        F796   1.358       .  S
C792        C793   1.404       .  A
C792        F808   1.358       .  S
C793        C794   1.406       .  A
C794        F797   1.358       .  S
C795        C798   1.401       .  A
C795        C802   1.404       .  A
C798        C799   1.396       .  A
C798        F803   1.358       .  S
C799        C800   1.409       .  A
C799        F805   1.358       .  S
C800        C801   1.408       .  A
C801        C802   1.404       .  A
C801        F804   1.357       .  S
C802        F806   1.358       .  S
C809        C810   1.407       .  A
C809        C814   1.397       .  A
C809        F827   1.358       .  S
C810        C815   1.481       .  S
C810        C811   1.407       .  A
C811        C812   1.399       .  A
C811        F816   1.358       .  S
C812        C813   1.403       .  A
C812        F828   1.358       .  S
C813        C814   1.403       .  A
C814        F817   1.358       .  S
C815        C818   1.404       .  A
C815        C822   1.408       .  A
C818        C819   1.393       .  A
C818        F823   1.358       .  S
C819        C820   1.406       .  A
C819        F825   1.358       .  S
C820        C821   1.404       .  A
C821        C822   1.404       .  A
C821        F824   1.357       .  S
C822        F826   1.358       .  S
C829        C830   1.408       .  A
C829        C834   1.402       .  A
C829        F847   1.358       .  S
C830        C835   1.485       .  S
C830        C831   1.407       .  A
C831        C832   1.399       .  A
C831        F836   1.358       .  S
C832        C833   1.403       .  A
C832        F848   1.358       .  S
C833        C834   1.404       .  A
C834        F837   1.357       .  S
C835        C838   1.402       .  A
C835        C842   1.401       .  A
C838        C839   1.401       .  A
C838        F843   1.358       .  S
C839        C840   1.420       .  A
C839        F845   1.351       .  S
C840        C841   1.418       .  A
C841        C842   1.398       .  A
C841        F844   1.359       .  S
C842        F846   1.358       .  S
C849        C850   1.402       .  A
C849        C854   1.398       .  A
C849        F867   1.358       .  S
C850        C855   1.478       .  S
C850        C851   1.403       .  A
C851        C852   1.400       .  A
C851        F856   1.358       .  S
C852        C853   1.410       .  A
C852        F868   1.357       .  S
C853        C854   1.413       .  A
C854        F857   1.358       .  S
C855        C858   1.404       .  A
C855        C862   1.404       .  A
C858        C859   1.399       .  A
C858        F863   1.358       .  S
C859        C860   1.408       .  A
C859        F865   1.358       .  S
C860        C861   1.407       .  A
C861        C862   1.399       .  A
C861        F864   1.356       .  S
C862        F866   1.358       .  S
C869        C870   1.406       .  A
C869        C874   1.399       .  A
C869        F887   1.358       .  S
C870        C875   1.483       .  S
C870        C871   1.403       .  A
C871        C872   1.402       .  A
C871        F876   1.358       .  S
C872        C873   1.412       .  A
C872        F888   1.358       .  S
C873        C874   1.408       .  A
C874        F877   1.358       .  S
C875        C878   1.404       .  A
C875        C882   1.409       .  A
C878        C879   1.395       .  A
C878        F883   1.358       .  S
C879        C880   1.404       .  A
C879        F885   1.358       .  S
C880        C881   1.404       .  A
C881        C882   1.405       .  A
C881        F884   1.357       .  S
C882        F886   1.358       .  S
C889        C890   1.403       .  A
C889        C894   1.394       .  A
C889        F907   1.358       .  S
C890        C895   1.474       .  S
C890        C891   1.406       .  A
C891        C892   1.400       .  A
C891        F896   1.358       .  S
C892        C893   1.402       .  A
C892        F908   1.357       .  S
C893        C894   1.406       .  A
C894        F897   1.358       .  S
C895        C898   1.404       .  A
C895        C902   1.401       .  A
C898        C899   1.396       .  A
C898        F903   1.358       .  S
C899        C900   1.407       .  A
C899        F905   1.358       .  S
C900        C901   1.412       .  A
C901        C902   1.397       .  A
C901        F904   1.358       .  S
C902        F906   1.358       .  S
C909        C910   1.404       .  A
C909        C914   1.401       .  A
C909        F927   1.357       .  S
C910        C915   1.483       .  S
C910        C911   1.403       .  A
C911        C912   1.401       .  A
C911        F916   1.358       .  S
C912        C913   1.412       .  A
C912        F928   1.356       .  S
C913        C914   1.410       .  A
C914        F917   1.357       .  S
C915        C918   1.402       .  A
C915        C922   1.404       .  A
C918        C919   1.400       .  A
C918        F923   1.358       .  S
C919        C920   1.413       .  A
C919        F925   1.358       .  S
C920        C921   1.412       .  A
C921        C922   1.404       .  A
C921        F924   1.357       .  S
C922        F926   1.358       .  S
O929        V937   1.907   1_465  S
O929        C939   1.266       .  A
O930        C940   1.267       .  A
O931        V937   1.894   1_565  S
O931        C941   1.264       .  A
O932        C942   1.264       .  A
O933        V938   1.910   1_455  S
O933        C942   1.268       .  A
O934        C941   1.268       .  A
O935        V938   1.889       .  S
O935        C940   1.262       .  A
O936        C939   1.261       .  A
C939       C1781   1.477       .  S
C940       C1828   1.483       .  S
C941       C1848   1.492       .  S
C942       C1801   1.488       .  S
C943        C944   1.536       .  S
C943        C949   1.536       .  S
C943        C947   1.554       .  S
C943       C1768   1.542       .  S
C944        H951   1.087       .  S
C944        C945   1.362       .  D
C945        C946   1.538       .  S
C945       C1808   1.485       .  S
C946        C950   1.537       .  S
C946        C948   1.532       .  S
C946        H952   1.111       .  S
C947        H953   1.078       .  S
C947        C948   1.372       .  D
C948       C1788   1.478       .  S
C949        H954   1.087       .  S
C949        C950   1.366       .  D
C950       C1748   1.485       .  S
C955        C956   1.527       .  S
C955        C961   1.539       .  S
C955        C959   1.549       .  S
C955       C1701   1.536       .  S
C956        H963   1.088       .  S
C956        C957   1.357       .  D
C957        C958   1.536       .  S
C957       C1821   1.472       .  S
C958        C962   1.540       .  S
C958        C960   1.541       .  S
C958        H964   1.110       .  S
C959        H965   1.084       .  S
C959        C960   1.375       .  D
C960       C1841   1.492       .  S
C961        H966   1.083       .  S
C961        C962   1.365       .  D
C962       C1728   1.484       .  S
C967        C968   1.527       .  S
C967       C1621   1.535       .  S
C968        H975   1.085       .  S
C968        C969   1.367       .  D
C969       C1661   1.502       .  S
C970        C974   1.544       .  S
C970        C972   1.531       .  S
C970        H976   1.110       .  S
C971        H977   1.079       .  S
C971        C972   1.367       .  D
C972       C1688   1.476       .  S
C973        H978   1.087       .  S
C973        C974   1.364       .  D
C974       C1648   1.482       .  S
O979        V987   1.914       .  S
O979        C989   1.269       .  A
O980        V987   1.912       .  S
O980        C990   1.268       .  A
O981        V987   1.896       .  S
O981        C991   1.262       .  A
O982        V987   1.891       .  S
O982        C992   1.262       .  A
O983        V988   1.915       .  S
O983        C992   1.269       .  A
O984        V988   1.913       .  S
O984        C991   1.269       .  A
O985        V988   1.885       .  S
O985        C990   1.261       .  A
O986        V988   1.881       .  S
O986        C989   1.260       .  A
V987        V988   2.083       .  T
C989       C1608   1.484       .  S
C990       C1681   1.481       .  S
C991       C1668   1.481       .  S
C992       C1581   1.486       .  S
C993        C994   1.523       .  S
C993       C1561   1.536       .  S
C994       H1001   1.087       .  S
C994        C995   1.360       .  D
C995       C1601   1.486       .  S
C996       C1000   1.540       .  S
C996        C998   1.540       .  S
C996       H1002   1.110       .  S
C997       H1003   1.083       .  S
C997        C998   1.372       .  D
C998       C1588   1.487       .  S
C999       H1004   1.086       .  S
C999       C1000   1.364       .  D
C1000      C1541   1.482       .  S
N1005      C1010   1.354       .  A
N1005      C1009   1.353       .  A
N1005      H1037   1.039       .  S
N1006      C1013   1.354   1_556  A
N1006      C1014   1.353       .  A
N1007      C1012   1.356       .  A
N1007      C1011   1.357       .  A
N1007      H1038   1.037       .  S
N1008      C1015   1.352   1_556  A
N1008      C1016   1.351       .  A
C1009      C1017   1.387       .  A
C1009      C1025   1.416       .  A
C1010      C1026   1.415       .  A
C1010      C1018   1.387       .  A
C1011      C1019   1.388       .  A
C1011      C1028   1.422       .  A
C1012      C1027   1.420       .  A
C1012      C1020   1.387       .  A
C1013      C1025   1.416       .  A
C1013      C1021   1.386       .  A
C1014      C1028   1.417       .  A
C1014      C1022   1.386       .  A
C1015      C1023   1.386       .  A
C1015      C1026   1.413       .  A
C1016      C1024   1.387       .  A
C1016      C1027   1.412       .  A
C1017      C1018   1.374       .  A
C1017      H1029   1.082       .  S
C1018      H1030   1.082       .  S
C1019      C1020   1.378       .  A
C1019      H1031   1.082       .  S
C1020      H1032   1.082       .  S
C1021      C1022   1.374   1_554  A
C1021      H1033   1.082       .  S
C1022      H1034   1.082       .  S
C1023      C1024   1.372   1_554  A
C1023      H1035   1.082       .  S
C1024      H1036   1.082       .  S
C1025      C1521   1.494       .  S
C1026      C1501   1.490       .  S
C1027      C1741   1.487       .  S
C1028      C1548   1.497       .  S
O1039      V1047   1.898       .  S
O1039      C1049   1.263       .  A
O1040      C1050   1.263       .  A
O1041      V1047   1.900   1_655  S
O1041      C1051   1.265       .  A
O1042      C1052   1.269       .  A
O1043      C1052   1.262       .  A
O1044      V1048   1.897   1_655  S
O1044      C1051   1.264       .  A
O1045      C1050   1.264       .  A
O1046      V1048   1.901       .  S
O1046      C1049   1.265       .  A
V1047      V1048   2.086       .  T
C1049      C1441   1.472       .  S
C1050      C1481   1.469       .  S
C1051      C1468   1.486       .  S
C1052      C1428   1.488       .  S
C1053      C1054   1.533       .  S
C1053      C1059   1.525       .  S
C1053      C1057   1.552       .  S
C1053      C1408   1.532       .  S
C1054      H1061   1.086       .  S
C1054      C1055   1.363       .  D
C1055      C1056   1.541       .  S
C1055      C1508   1.483       .  S
C1056      C1060   1.537       .  S
C1056      C1058   1.539       .  S
C1056      H1062   1.109       .  S
C1057      H1063   1.080       .  S
C1057      C1058   1.376       .  D
C1058      C1421   1.492       .  S
C1059      H1064   1.088       .  S
C1059      C1060   1.358       .  D
C1060      C1448   1.477       .  S
C1065      C1066   1.529       .  S
C1065      C1071   1.538       .  S
C1065      C1069   1.552       .  S
C1065      C1361   1.541       .  S
C1066      H1073   1.086       .  S
C1066      C1067   1.365       .  D
C1067      C1068   1.542       .  S
C1067      C1381   1.488       .  S
C1068      C1072   1.539       .  S
C1068      C1070   1.531       .  S
C1068      H1074   1.110       .  S
C1069      H1075   1.079       .  S
C1069      C1070   1.368       .  D
C1070      C1461   1.478       .  S
C1071      H1076   1.086       .  S
C1071      C1072   1.367       .  D
C1072      C1488   1.489       .  S
C1077      C1078   1.537       .  S
C1077      C1083   1.533       .  S
C1077      C1308   1.537       .  S
C1078      H1085   1.085       .  S
C1079      C1080   1.541       .  S
C1079      C1281   1.494       .  S
C1080      C1082   1.536       .  S
C1080      H1086   1.110       .  S
C1081      H1087   1.081       .  S
C1081      C1082   1.374       .  D
C1082      C1341   1.489       .  S
C1083      H1088   1.087       .  S
C1083      C1084   1.357       .  D
C1084      C1328   1.477       .  S
C1089      C1090   1.540       .  S
C1089      C1095   1.536       .  S
C1089      C1528   1.542       .  S
C1090      H1097   1.086       .  S
C1091      C1092   1.537       .  S
C1091      C1228   1.482       .  S
C1092      C1094   1.534       .  S
C1092      H1098   1.111       .  S
C1093      H1099   1.077       .  S
C1093      C1094   1.369       .  D
C1094      C1268   1.483       .  S
C1095      H1100   1.087       .  S
C1095      C1096   1.365       .  D
C1096      C1248   1.488       .  S
O1101      V1109   1.887       .  S
O1101      C1111   1.261       .  A
O1102      V1109   1.891       .  S
O1102      C1112   1.262       .  A
O1103      V1109   1.908       .  S
O1103      C1113   1.267       .  A
O1104      V1109   1.906       .  S
O1104      C1114   1.267       .  A
O1105      V1110   1.898       .  S
O1105      C1114   1.263       .  A
O1106      V1110   1.901       .  S
O1106      C1113   1.264       .  A
O1107      V1110   1.914       .  S
O1107      C1112   1.268       .  A
O1108      V1110   1.917       .  S
O1108      C1111   1.270       .  A
V1109      V1110   2.085       .  T
C1111      C1348   1.489       .  S
C1112      C1261   1.483       .  S
C1113      C1241   1.488       .  S
C1114      C1321   1.480       .  S
N1115      C1120   1.351       .  A
N1115      C1119   1.353       .  A
N1115      H1147   1.040       .  S
N1116      C1123   1.351   1_554  A
N1116      C1124   1.349       .  A
N1117      C1122   1.354       .  A
N1117      C1121   1.352       .  A
N1117      H1148   1.040       .  S
N1118      C1125   1.349   1_554  A
N1118      C1126   1.349       .  A
C1119      C1127   1.387       .  A
C1119      C1135   1.414       .  A
C1120      C1136   1.413       .  A
C1120      C1128   1.387       .  A
C1121      C1129   1.387       .  A
C1121      C1138   1.415       .  A
C1122      C1137   1.415       .  A
C1122      C1130   1.387       .  A
C1123      C1135   1.409       .  A
C1123      C1131   1.385   1_556  A
C1124      C1138   1.412       .  A
C1124      C1132   1.387       .  A
C1125      C1133   1.386       .  A
C1125      C1136   1.408       .  A
C1126      C1134   1.386       .  A
C1126      C1137   1.410       .  A
C1127      C1128   1.376       .  A
C1127      H1139   1.082       .  S
C1128      H1140   1.082       .  S
C1129      C1130   1.378       .  A
C1129      H1141   1.082       .  S
C1130      H1142   1.082       .  S
C1131      C1132   1.372       .  A
C1131      H1143   1.082   1_554  S
C1132      H1144   1.082       .  S
C1133      C1134   1.373   1_556  A
C1133      H1145   1.082       .  S
C1134      H1146   1.082       .  S
C1135      C1708   1.488       .  S
C1136      C1628   1.480       .  S
C1137      C1301   1.487       .  S
C1138      C1388   1.486       .  S
N1149      C1154   1.354       .  A
N1149      C1153   1.353       .  A
N1149      H1181   1.036       .  S
N1150      C1157   1.350       .  A
N1150      C1158   1.352       .  A
N1151      C1156   1.354       .  A
N1151      C1155   1.355       .  A
N1151      H1182   1.037       .  S
N1152      C1159   1.353       .  A
N1152      C1160   1.351       .  A
C1153      C1161   1.387       .  A
C1153      C1169   1.416       .  A
C1154      C1170   1.415       .  A
C1154      C1162   1.387       .  A
C1155      C1163   1.386       .  A
C1155      C1172   1.416       .  A
C1156      C1171   1.418       .  A
C1156      C1164   1.388       .  A
C1157      C1169   1.412       .  A
C1157      C1165   1.387       .  A
C1158      C1172   1.411       .  A
C1158      C1166   1.386       .  A
C1159      C1167   1.385       .  A
C1159      C1170   1.412       .  A
C1160      C1168   1.387       .  A
C1160      C1171   1.414       .  A
C1161      C1162   1.376       .  A
C1161      H1173   1.082       .  S
C1162      H1174   1.082       .  S
C1163      C1164   1.376       .  A
C1163      H1175   1.082       .  S
C1164      H1176   1.082       .  S
C1165      C1166   1.372       .  A
C1165      H1177   1.082       .  S
C1166      H1178   1.082       .  S
C1167      C1168   1.372       .  A
C1167      H1179   1.082       .  S
C1168      H1180   1.082       .  S
C1169      C1401   1.481       .  S
C1170      C1221   1.488       .  S
C1171      C1568   1.487       .  S
C1172      C1761   1.487       .  S
N1183      C1188   1.354       .  A
N1183      C1187   1.354       .  A
N1183      H1215   1.036       .  S
N1184      C1191   1.353       .  A
N1184      C1192   1.353       .  A
N1185      C1190   1.356       .  A
N1185      C1189   1.355       .  A
N1185      H1216   1.038       .  S
N1186      C1193   1.351       .  A
N1186      C1194   1.352       .  A
C1187      C1195   1.388       .  A
C1187      C1203   1.418       .  A
C1188      C1204   1.418       .  A
C1188      C1196   1.387       .  A
C1189      C1197   1.386       .  A
C1189      C1206   1.417       .  A
C1190      C1205   1.420       .  A
C1190      C1198   1.388       .  A
C1191      C1203   1.416       .  A
C1191      C1199   1.386       .  A
C1192      C1206   1.416       .  A
C1192      C1200   1.386       .  A
C1193      C1201   1.386       .  A
C1193      C1204   1.413       .  A
C1194      C1202   1.386       .  A
C1194      C1205   1.414       .  A
C1195      C1196   1.374       .  A
C1195      H1207   1.082       .  S
C1196      H1208   1.082       .  S
C1197      C1198   1.373       .  A
C1197      H1209   1.082       .  S
C1198      H1210   1.082       .  S
C1199      C1200   1.373       .  A
C1199      H1211   1.082       .  S
C1200      H1212   1.082       .  S
C1201      C1202   1.372       .  A
C1201      H1213   1.082       .  S
C1202      H1214   1.082       .  S
C1203      C1721   1.488       .  S
C1204      C1641   1.485       .  S
C1205      C1288   1.493       .  S
C1206      C1368   1.490       .  S
C1217      C1218   1.405       .  A
C1217      C1222   1.402       .  A
C1217      F1235   1.358       .  S
C1218      C1223   1.477       .  S
C1218      C1219   1.404       .  A
C1219      C1220   1.399       .  A
C1219      F1224   1.358       .  S
C1220      C1221   1.405       .  A
C1220      F1236   1.358       .  S
C1221      C1222   1.406       .  A
C1222      F1225   1.357       .  S
C1223      C1226   1.405       .  A
C1223      C1230   1.402       .  A
C1226      C1227   1.404       .  A
C1226      F1231   1.357       .  S
C1227      C1228   1.405       .  A
C1228      C1229   1.408       .  A
C1229      C1230   1.397       .  A
C1229      F1232   1.358       .  S
C1230      F1234   1.358       .  S
C1237      C1238   1.405       .  A
C1237      C1242   1.402       .  A
C1237      F1255   1.358       .  S
C1238      C1243   1.487       .  S
C1238      C1239   1.406       .  A
C1239      C1240   1.402       .  A
C1239      F1244   1.358       .  S
C1240      C1241   1.409       .  A
C1240      F1256   1.358       .  S
C1241      C1242   1.411       .  A
C1242      F1245   1.358       .  S
C1243      C1246   1.406       .  A
C1243      C1250   1.407       .  A
C1246      C1247   1.402       .  A
C1246      F1251   1.358       .  S
C1247      C1248   1.408       .  A
C1247      F1253   1.356       .  S
C1248      C1249   1.406       .  A
C1249      C1250   1.402       .  A
C1249      F1252   1.358       .  S
C1250      F1254   1.358       .  S
C1257      C1258   1.403       .  A
C1257      C1262   1.397       .  A
C1257      F1275   1.358       .  S
C1258      C1263   1.483       .  S
C1258      C1259   1.407       .  A
C1259      C1260   1.404       .  A
C1259      F1264   1.358       .  S
C1260      C1261   1.408       .  A
C1260      F1276   1.358       .  S
C1261      C1262   1.410       .  A
C1262      F1265   1.358       .  S
C1263      C1266   1.406       .  A
C1263      C1270   1.405       .  A
C1266      C1267   1.399       .  A
C1266      F1271   1.358       .  S
C1267      C1268   1.406       .  A
C1267      F1273   1.358       .  S
C1268      C1269   1.407       .  A
C1269      C1270   1.400       .  A
C1269      F1272   1.358       .  S
C1270      F1274   1.358       .  S
C1277      C1278   1.411       .  A
C1277      C1282   1.403       .  A
C1277      F1295   1.358       .  S
C1278      C1283   1.496       .  S
C1278      C1279   1.408       .  A
C1279      C1280   1.399       .  A
C1279      F1284   1.358       .  S
C1280      C1281   1.409       .  A
C1280      F1296   1.356       .  S
C1281      C1282   1.408       .  A
C1282      F1285   1.358   1_565  S
C1283      C1286   1.410       .  A
C1283      C1290   1.412       .  A
C1286      C1287   1.402       .  A
C1286      F1291   1.357       .  S
C1287      C1288   1.406       .  A
C1287      F1293   1.358       .  S
C1288      C1289   1.403       .  A
C1289      C1290   1.399       .  A
C1289      F1292   1.358       .  S
C1290      F1294   1.358       .  S
C1297      C1298   1.405       .  A
C1297      C1302   1.399       .  A
C1297      F1315   1.358       .  S
C1298      C1303   1.477       .  S
C1298      C1299   1.404       .  A
C1299      C1300   1.399       .  A
C1299      F1304   1.358       .  S
C1300      C1301   1.407       .  A
C1300      F1316   1.358       .  S
C1301      C1302   1.405       .  A
C1302      F1305   1.357       .  S
C1303      C1306   1.397       .  A
C1303      C1310   1.402       .  A
C1306      C1307   1.393       .  A
C1307      C1308   1.418       .  A
C1308      C1309   1.419       .  A
C1309      C1310   1.404       .  A
C1309      F1312   1.353       .  S
C1310      F1314   1.358       .  S
C1317      C1318   1.405       .  A
C1317      C1322   1.398       .  A
C1317      F1335   1.358       .  S
C1318      C1323   1.481       .  S
C1318      C1319   1.404       .  A
C1319      C1320   1.402       .  A
C1319      F1324   1.358       .  S
C1320      C1321   1.410       .  A
C1320      F1336   1.358       .  S
C1321      C1322   1.406       .  A
C1322      F1325   1.358       .  S
C1323      C1326   1.408       .  A
C1323      C1330   1.404       .  A
C1326      C1327   1.404       .  A
C1326      F1331   1.357       .  S
C1327      C1328   1.403       .  A
C1327      F1333   1.358       .  S
C1328      C1329   1.404       .  A
C1329      C1330   1.395       .  A
C1329      F1332   1.358       .  S
C1330      F1334   1.358       .  S
C1337      C1338   1.407       .  A
C1337      C1342   1.403       .  A
C1337      F1355   1.358       .  S
C1338      C1343   1.484       .  S
C1338      C1339   1.403       .  A
C1339      C1340   1.398       .  A
C1339      F1344   1.358       .  S
C1340      C1341   1.409       .  A
C1340      F1356   1.355       .  S
C1341      C1342   1.407       .  A
C1342      F1345   1.358       .  S
C1343      C1346   1.407       .  A
C1343      C1350   1.402       .  A
C1346      C1347   1.403       .  A
C1346      F1351   1.358       .  S
C1347      C1348   1.409       .  A
C1347      F1353   1.357       .  S
C1348      C1349   1.414       .  A
C1349      C1350   1.398       .  A
C1349      F1352   1.358       .  S
C1350      F1354   1.358       .  S
C1357      C1358   1.399       .  A
C1357      C1362   1.398       .  A
C1357      F1375   1.358       .  S
C1358      C1363   1.480       .  S
C1358      C1359   1.400       .  A
C1359      C1360   1.402       .  A
C1359      F1364   1.358       .  S
C1360      C1361   1.419       .  A
C1360      F1376   1.352       .  S
C1361      C1362   1.418       .  A
C1362      F1365   1.359       .  S
C1363      C1366   1.405       .  A
C1363      C1370   1.405       .  A
C1366      C1367   1.402       .  A
C1366      F1371   1.358       .  S
C1367      C1368   1.406       .  A
C1367      F1373   1.358       .  S
C1368      C1369   1.405       .  A
C1369      C1370   1.399       .  A
C1369      F1372   1.357       .  S
C1370      F1374   1.358       .  S
C1377      C1378   1.407       .  A
C1377      C1382   1.400       .  A
C1377      F1395   1.358       .  S
C1378      C1383   1.484       .  S
C1378      C1379   1.405       .  A
C1379      C1380   1.396       .  A
C1379      F1384   1.358       .  S
C1380      C1381   1.408       .  A
C1380      F1396   1.358       .  S
C1381      C1382   1.409       .  A
C1382      F1385   1.357       .  S
C1383      C1386   1.409       .  A
C1383      C1390   1.406       .  A
C1386      C1387   1.399       .  A
C1386      F1391   1.358       .  S
C1387      C1388   1.404       .  A
C1387      F1393   1.358       .  S
C1388      C1389   1.405       .  A
C1389      C1390   1.396       .  A
C1389      F1392   1.358       .  S
C1390      F1394   1.358       .  S
C1397      C1398   1.406       .  A
C1397      C1402   1.396       .  A
C1397      F1415   1.358       .  S
C1398      C1403   1.477       .  S
C1398      C1399   1.405       .  A
C1399      C1400   1.399       .  A
C1399      F1404   1.358       .  S
C1400      C1401   1.404       .  A
C1400      F1416   1.357       .  S
C1401      C1402   1.402       .  A
C1402      F1405   1.358       .  S
C1403      C1406   1.402       .  A
C1403      C1410   1.398       .  A
C1406      C1407   1.401       .  A
C1406      F1411   1.358       .  S
C1407      C1408   1.417       .  A
C1407      F1413   1.354       .  S
C1408      C1409   1.418       .  A
C1409      C1410   1.393       .  A
C1409      F1412   1.358       .  S
C1410      F1414   1.358       .  S
C1417      C1418   1.401       .  A
C1417      C1422   1.399       .  A
C1417      F1435   1.358       .  S
C1418      C1423   1.478       .  S
C1418      C1419   1.403       .  A
C1419      C1420   1.400       .  A
C1419      F1424   1.358       .  S
C1420      C1421   1.410       .  A
C1420      F1436   1.357       .  S
C1421      C1422   1.412       .  A
C1422      F1425   1.357       .  S
C1423      C1426   1.400       .  A
C1423      C1430   1.404       .  A
C1426      C1427   1.396       .  A
C1426      F1431   1.358       .  S
C1427      C1428   1.413       .  A
C1427      F1433   1.358       .  S
C1428      C1429   1.411       .  A
C1429      C1430   1.404       .  A
C1429      F1432   1.357       .  S
C1430      F1434   1.358       .  S
C1437      C1438   1.405       .  A
C1437      C1442   1.398       .  A
C1437      F1455   1.358       .  S
C1438      C1443   1.475       .  S
C1438      C1439   1.403       .  A
C1439      C1440   1.400       .  A
C1439      F1444   1.358       .  S
C1440      C1441   1.407       .  A
C1440      F1456   1.358       .  S
C1441      C1442   1.405       .  A
C1442      F1445   1.358       .  S
C1443      C1446   1.407       .  A
C1443      C1450   1.401       .  A
C1446      C1447   1.403       .  A
C1446      F1451   1.357       .  S
C1447      C1448   1.402       .  A
C1447      F1453   1.357       .  S
C1448      C1449   1.408       .  A
C1449      C1450   1.393       .  A
C1449      F1452   1.359       .  S
C1450      F1454   1.358       .  S
C1457      C1458   1.403       .  A
C1457      C1462   1.398       .  A
C1457      F1475   1.358       .  S
C1458      C1463   1.473       .  S
C1458      C1459   1.403       .  A
C1459      C1460   1.399       .  A
C1459      F1464   1.358       .  S
C1460      C1461   1.405       .  A
C1460      F1476   1.358       .  S
C1461      C1462   1.406       .  A
C1462      F1465   1.357       .  S
C1463      C1466   1.400       .  A
C1463      C1470   1.401       .  A
C1466      C1467   1.397       .  A
C1466      F1471   1.358       .  S
C1467      C1468   1.412       .  A
C1467      F1473   1.358       .  S
C1468      C1469   1.412       .  A
C1469      C1470   1.399       .  A
C1469      F1472   1.358       .  S
C1470      F1474   1.358       .  S
C1477      C1478   1.407       .  A
C1477      C1482   1.399       .  A
C1477      F1495   1.358       .  S
C1478      C1483   1.485       .  S
C1478      C1479   1.409       .  A
C1479      C1480   1.400       .  A
C1479      F1484   1.358       .  S
C1480      C1481   1.403       .  A
C1480      F1496   1.358       .  S
C1481      C1482   1.403       .  A
C1482      F1485   1.358       .  S
C1483      C1486   1.408       .  A
C1483      C1490   1.404       .  A
C1486      C1487   1.403       .  A
C1486      F1491   1.358       .  S
C1487      C1488   1.407       .  A
C1487      F1493   1.357       .  S
C1488      C1489   1.410       .  A
C1489      C1490   1.396       .  A
C1489      F1492   1.358       .  S
C1490      F1494   1.358       .  S
C1497      C1498   1.408       .  A
C1497      C1502   1.398       .  A
C1497      F1515   1.358       .  S
C1498      C1503   1.486       .  S
C1498      C1499   1.408       .  A
C1499      C1500   1.399       .  A
C1499      F1504   1.358       .  S
C1500      C1501   1.405       .  A
C1500      F1516   1.358       .  S
C1501      C1502   1.405       .  A
C1502      F1505   1.358       .  S
C1503      C1506   1.407       .  A
C1503      C1510   1.408       .  A
C1506      C1507   1.396       .  A
C1506      F1511   1.358       .  S
C1507      C1508   1.406       .  A
C1507      F1513   1.358       .  S
C1508      C1509   1.406       .  A
C1509      C1510   1.401       .  A
C1509      F1512   1.357       .  S
C1510      F1514   1.358       .  S
C1517      C1518   1.405       .  A
C1517      C1522   1.400       .  A
C1517      F1535   1.358       .  S
C1518      C1523   1.485       .  S
C1518      C1519   1.407       .  A
C1519      C1520   1.401       .  A
C1519      F1524   1.358       .  S
C1520      C1521   1.407       .  A
C1520      F1536   1.358       .  S
C1521      C1522   1.408       .  A
C1522      F1525   1.358       .  S
C1523      C1526   1.401       .  A
C1523      C1530   1.402       .  A
C1526      C1527   1.399       .  A
C1526      F1531   1.358       .  S
C1527      C1528   1.417       .  A
C1527      F1533   1.358       .  S
C1528      C1529   1.420       .  A
C1529      C1530   1.403       .  A
C1530      F1534   1.358       .  S
C1537      C1538   1.405       .  A
C1537      C1542   1.401       .  A
C1537      F1555   1.358       .  S
C1538      C1543   1.484       .  S
C1538      C1539   1.407       .  A
C1539      C1540   1.404   1_565  A
C1540      C1541   1.404   1_545  A
C1541      C1542   1.406       .  A
C1542      F1545   1.358       .  S
C1543      C1546   1.405       .  A
C1543      C1550   1.405       .  A
C1546      C1547   1.404       .  A
C1546      F1551   1.358       .  S
C1547      C1548   1.409       .  A
C1547      F1553   1.358       .  S
C1548      C1549   1.406       .  A
C1549      C1550   1.402       .  A
C1549      F1552   1.357       .  S
C1550      F1554   1.358       .  S
C1557      C1558   1.402       .  A
C1557      C1562   1.404       .  A
C1557      F1575   1.358       .  S
C1558      C1563   1.477       .  S
C1558      C1559   1.397       .  A
C1559      C1560   1.393       .  A
C1559      F1564   1.358       .  S
C1560      C1561   1.418       .  A
C1561      C1562   1.418       .  A
C1562      F1565   1.353       .  S
C1563      C1566   1.404       .  A
C1563      C1570   1.405       .  A
C1566      C1567   1.397       .  A
C1566      F1571   1.358       .  S
C1567      C1568   1.404       .  A
C1567      F1573   1.358       .  S
C1568      C1569   1.407       .  A
C1569      C1570   1.400       .  A
C1569      F1572   1.358       .  S
C1570      F1574   1.358       .  S
C1577      C1578   1.405       .  A
C1577      C1582   1.399       .  A
C1577      F1595   1.358       .  S
C1578      C1583   1.489       .  S
C1578      C1579   1.409       .  A
C1579      C1580   1.402       .  A
C1579      F1584   1.358       .  S
C1580      C1581   1.407       .  A
C1580      F1596   1.357       .  S
C1581      C1582   1.411       .  A
C1582      F1585   1.358       .  S
C1583      C1586   1.406       .  A
C1583      C1590   1.409       .  A
C1586      C1587   1.399       .  A
C1586      F1591   1.358       .  S
C1587      C1588   1.407       .  A
C1587      F1593   1.356       .  S
C1588      C1589   1.407       .  A
C1589      C1590   1.402       .  A
C1589      F1592   1.358       .  S
C1590      F1594   1.358       .  S
C1597      C1598   1.404       .  A
C1597      C1602   1.401       .  A
C1597      F1615   1.358       .  S
C1598      C1603   1.474       .  S
C1598      C1599   1.400       .  A
C1599      C1600   1.396       .  A
C1599      F1604   1.358       .  S
C1600      C1601   1.411       .  A
C1600      F1616   1.358       .  S
C1601      C1602   1.407       .  A
C1602      F1605   1.356       .  S
C1603      C1606   1.405       .  A
C1603      C1610   1.397       .  A
C1606      C1607   1.402       .  A
C1606      F1611   1.358       .  S
C1607      C1608   1.409       .  A
C1607      F1613   1.358       .  S
C1608      C1609   1.414       .  A
C1609      C1610   1.395       .  A
C1609      F1612   1.358       .  S
C1610      F1614   1.358       .  S
C1617      C1618   1.399       .  A
C1617      C1622   1.396       .  A
C1617      F1635   1.358       .  S
C1618      C1623   1.476       .  S
C1618      C1619   1.399       .  A
C1619      C1620   1.398       .  A
C1619      F1624   1.358       .  S
C1620      C1621   1.419       .  A
C1620      F1636   1.354       .  S
C1621      C1622   1.417       .  A
C1622      F1625   1.358       .  S
C1623      C1626   1.406       .  A
C1623      C1630   1.405       .  A
C1626      C1627   1.397       .  A
C1626      F1631   1.358       .  S
C1627      C1628   1.404       .  A
C1627      F1633   1.358       .  S
C1628      C1629   1.403       .  A
C1629      C1630   1.397       .  A
C1629      F1632   1.358       .  S
C1630      F1634   1.358       .  S
C1637      C1638   1.408       .  A
C1637      C1642   1.399       .  A
C1637      F1655   1.358       .  S
C1638      C1643   1.487       .  S
C1638      C1639   1.410       .  A
C1639      C1640   1.399       .  A
C1639      F1644   1.358       .  S
C1640      C1641   1.401       .  A
C1640      F1656   1.357       .  S
C1641      C1642   1.404       .  A
C1642      F1645   1.358       .  S
C1643      C1646   1.411       .  A
C1643      C1650   1.406       .  A
C1646      C1647   1.405       .  A
C1646      F1651   1.358       .  S
C1647      C1648   1.403       .  A
C1648      C1649   1.407       .  A
C1649      C1650   1.393       .  A
C1649      F1652   1.358       .  S
C1650      F1654   1.358       .  S
C1657      C1658   1.409       .  A
C1657      C1662   1.409       .  A
C1657      F1675   1.358       .  S
C1658      C1663   1.490       .  S
C1658      C1659   1.401       .  A
C1659      C1660   1.392       .  A
C1659      F1664   1.358       .  S
C1660      C1661   1.415       .  A
C1660      F1676   1.357       .  S
C1661      C1662   1.411       .  A
C1662      F1665   1.356       .  S
C1663      C1666   1.409       .  A
C1663      C1670   1.407       .  A
C1666      C1667   1.400       .  A
C1666      F1671   1.358       .  S
C1667      C1668   1.404       .  A
C1667      F1673   1.358       .  S
C1668      C1669   1.409       .  A
C1669      C1670   1.404       .  A
C1669      F1672   1.358       .  S
C1670      F1674   1.358       .  S
C1677      C1678   1.404       .  A
C1677      C1682   1.395       .  A
C1677      F1695   1.358       .  S
C1678      C1683   1.482       .  S
C1678      C1679   1.407       .  A
C1679      C1680   1.401       .  A
C1679      F1684   1.358       .  S
C1680      C1681   1.407       .  A
C1680      F1696   1.358       .  S
C1681      C1682   1.410       .  A
C1682      F1685   1.358       .  S
C1683      C1686   1.407       .  A
C1683      C1690   1.408       .  A
C1686      C1687   1.398       .  A
C1686      F1691   1.358       .  S
C1687      C1688   1.404       .  A
C1687      F1693   1.357       .  S
C1688      C1689   1.404       .  A
C1689      C1690   1.397       .  A
C1689      F1692   1.358       .  S
C1690      F1694   1.358       .  S
C1697      C1698   1.398       .  A
C1697      C1702   1.395       .  A
C1697      F1715   1.359       .  S
C1698      C1703   1.478       .  S
C1698      C1699   1.400       .  A
C1699      C1700   1.402       .  A
C1699      F1704   1.358       .  S
C1700      C1701   1.420       .  A
C1700      F1716   1.357       .  S
C1701      C1702   1.420       .  A
C1702      F1705   1.355       .  S
C1703      C1706   1.406       .  A
C1703      C1710   1.403       .  A
C1706      C1707   1.397       .  A
C1706      F1711   1.358       .  S
C1707      C1708   1.404       .  A
C1707      F1713   1.358       .  S
C1708      C1709   1.408       .  A
C1709      C1710   1.401       .  A
C1709      F1712   1.358       .  S
C1710      F1714   1.357       .  S
C1717      C1718   1.406       .  A
C1717      C1722   1.401       .  A
C1717      F1735   1.358       .  S
C1718      C1723   1.481       .  S
C1718      C1719   1.406       .  A
C1719      C1720   1.400       .  A
C1719      F1724   1.358       .  S
C1720      C1721   1.404       .  A
C1720      F1736   1.357       .  S
C1721      C1722   1.405       .  A
C1722      F1725   1.358       .  S
C1723      C1726   1.403       .  A
C1723      C1730   1.406       .  A
C1726      C1727   1.397       .  A
C1726      F1731   1.358       .  S
C1727      C1728   1.407       .  A
C1727      F1733   1.358       .  S
C1728      C1729   1.406       .  A
C1729      C1730   1.404       .  A
C1729      F1732   1.357       .  S
C1730      F1734   1.358       .  S
C1737      C1738   1.408       .  A
C1737      C1742   1.400       .  A
C1737      F1755   1.358       .  S
C1738      C1743   1.486       .  S
C1738      C1739   1.408       .  A
C1739      C1740   1.400       .  A
C1739      F1744   1.358       .  S
C1740      C1741   1.404       .  A
C1740      F1756   1.358       .  S
C1741      C1742   1.403       .  A
C1742      F1745   1.357       .  S
C1743      C1746   1.405       .  A
C1743      C1750   1.409       .  A
C1746      C1747   1.396       .  A
C1746      F1751   1.358       .  S
C1747      C1748   1.408       .  A
C1747      F1753   1.358       .  S
C1748      C1749   1.405       .  A
C1749      C1750   1.404       .  A
C1749      F1752   1.356       .  S
C1750      F1754   1.358       .  S
C1757      C1758   1.409       .  A
C1757      C1762   1.402       .  A
C1757      F1775   1.357       .  S
C1758      C1763   1.491       .  S
C1758      C1759   1.410       .  A
C1759      C1760   1.399       .  A
C1759      F1764   1.358       .  S
C1760      C1761   1.402       .  A
C1760      F1776   1.358       .  S
C1761      C1762   1.404       .  A
C1762      F1765   1.357       .  S
C1763      C1766   1.406       .  A
C1763      C1770   1.402       .  A
C1766      C1767   1.405       .  A
C1766      F1771   1.358       .  S
C1767      C1768   1.420       .  A
C1767      F1773   1.352       .  S
C1768      C1769   1.416       .  A
C1769      C1770   1.396       .  A
C1769      F1772   1.359       .  S
C1770      F1774   1.358       .  S
C1777      C1778   1.398       .  A
C1777      C1782   1.391       .  A
C1777      F1795   1.358       .  S
C1778      C1783   1.467       .  S
C1778      C1779   1.403       .  A
C1779      C1780   1.401       .  A
C1779      F1784   1.358       .  S
C1780      C1781   1.410       .  A
C1780      F1796   1.358       .  S
C1781      C1782   1.410       .  A
C1782      F1785   1.358       .  S
C1783      C1786   1.402       .  A
C1783      C1790   1.400       .  A
C1786      C1787   1.399       .  A
C1786      F1791   1.358       .  S
C1787      C1788   1.408       .  A
C1787      F1793   1.358       .  S
C1788      C1789   1.406       .  A
C1789      C1790   1.393       .  A
C1789      F1792   1.357       .  S
C1790      F1794   1.358       .  S
C1797      C1798   1.408       .  A
C1797      C1802   1.401       .  A
C1797      F1815   1.358       .  S
C1798      C1803   1.492       .  S
C1798      C1799   1.406       .  A
C1799      C1800   1.404       .  A
C1799      F1804   1.358       .  S
C1800      C1801   1.411       .  A
C1800      F1816   1.358       .  S
C1801      C1802   1.407       .  A
C1802      F1805   1.358       .  S
C1803      C1806   1.406       .  A
C1803      C1810   1.411       .  A
C1806      C1807   1.397       .  A
C1806      F1811   1.358       .  S
C1807      C1808   1.407       .  A
C1807      F1813   1.358       .  S
C1808      C1809   1.403       .  A
C1809      C1810   1.406       .  A
C1809      F1812   1.356       .  S
C1810      F1814   1.357       .  S
C1817      C1818   1.403       .  A
C1817      C1822   1.395       .  A
C1817      F1835   1.358       .  S
C1818      C1823   1.476       .  S
C1818      C1819   1.407       .  A
C1819      C1820   1.400       .  A
C1819      F1824   1.358       .  S
C1820      C1821   1.401       .  A
C1820      F1836   1.357       .  S
C1821      C1822   1.405       .  A
C1822      F1825   1.358       .  S
C1823      C1826   1.405       .  A
C1823      C1830   1.400       .  A
C1826      C1827   1.399       .  A
C1826      F1831   1.358       .  S
C1827      C1828   1.409       .  A
C1827      F1833   1.358       .  S
C1828      C1829   1.412       .  A
C1829      C1830   1.396       .  A
C1829      F1832   1.358       .  S
C1830      F1834   1.358       .  S
C1837      C1838   1.406       .  A
C1837      C1842   1.400       .  A
C1837      F1855   1.358       .  S
C1838      C1843   1.484       .  S
C1838      C1839   1.403       .  A
C1839      C1840   1.400       .  A
C1839      F1844   1.358       .  S
C1840      C1841   1.411       .  A
C1840      F1856   1.356       .  S
C1841      C1842   1.409       .  A
C1842      F1845   1.358       .  S
C1843      C1846   1.402       .  A
C1843      C1850   1.406       .  A
C1846      C1847   1.397       .  A
C1846      F1851   1.358       .  S
C1847      C1848   1.413       .  A
C1847      F1853   1.358       .  S
C1848      C1849   1.412       .  A
C1849      C1850   1.404       .  A
C1849      F1852   1.357       .  S
C1850      F1854   1.358       .  S
