geometry optimzed in LAMMPS
_audit_creation_date              2020-11-30 
_audit_creation_method            'lammps2cif' 
_symmetry_space_group_name_H-M    'P1' 
_symmetry_Int_Tables_number       1 
_symmetry_cell_setting            triclinic 
loop_ 
_symmetry_equiv_pos_as_xyz 
  x,y,z 
_cell_length_a                    30.70974159690833 
_cell_length_b                    31.612904901089518 
_cell_length_c                    29.292730302881623 
_cell_angle_alpha                 91.21311581990334 
_cell_angle_beta                  88.89873373240609 
_cell_angle_gamma                 90.4625641483003 
loop_ 
_atom_site_label 
_atom_site_type_symbol 
_atom_site_fract_x 
_atom_site_fract_y 
_atom_site_fract_z 
_atom_site_charge 
O1          O  0.24855691  0.17968206  0.36745822    -0.86330
O2          O  0.25063558  0.18005235  0.62666334    -0.86500
O3          O  0.32487796  0.13227254  0.49274862    -0.88170
O4          O  0.18373784  0.13078030  0.50275398    -0.86920
O5          O  0.12831466  0.17854148  0.50484288    -0.86510
O6          O  0.37934947  0.18179435  0.49207690    -0.87880
O7          O  0.25013840  0.13054130  0.56883318    -0.86360
O8          O  0.24745960  0.12861885  0.42225061    -0.85950
Zr9        Zr  0.25327431  0.16507418  0.49504146     2.84310
O10         O  0.20860279  0.20647609  0.54220675    -1.07920
O11         O  0.29721443  0.20650857  0.44762093    -1.08650
C12         C  0.24575847  0.14089796  0.38070040     1.06780
C13         C  0.24925330  0.14150820  0.61168070     1.06720
C14         C  0.36560299  0.14324636  0.49294559     1.09540
C15         C  0.14334450  0.14044031  0.50637394     1.07480
H16         H  0.31525655  0.18771100  0.55977006     0.33040
O17         O  0.29752252  0.20584562  0.54177076    -1.28880
H18         H  0.18987701  0.18873958  0.43196387     0.32710
O19         O  0.20840926  0.20654730  0.45051834    -1.30550
O20         O  0.25509421  0.31458718  0.63043256    -0.86330
O21         O  0.24944212  0.32056801  0.37129766    -0.87820
O22         O  0.37643271  0.24543835  0.56865795    -0.86400
O23         O  0.12901723  0.24602246  0.57377947    -0.86450
O24         O  0.13048534  0.24861457  0.42088872    -0.86160
O25         O  0.37380636  0.25042373  0.41852684    -0.85970
O26         O  0.32483119  0.36759830  0.50040625    -0.86340
O27         O  0.18196239  0.36809033  0.50759015    -0.85800
O28         O  0.37753604  0.31623513  0.49766617    -0.86870
O29         O  0.12844955  0.31695928  0.50370200    -0.86020
O30         O  0.32364821  0.24575304  0.62528987    -0.86420
O31         O  0.32193007  0.24938565  0.36342979    -0.86150
O32         O  0.18441852  0.24871152  0.36533055    -0.85800
O33         O  0.18218294  0.24757064  0.62816272    -0.86200
O34         O  0.25509130  0.36680033  0.57705385    -0.86500
O35         O  0.24902253  0.37066022  0.42929826    -0.87840
Zr36       Zr  0.25291040  0.24776662  0.58927553     2.83100
Zr37       Zr  0.25258778  0.24990082  0.40478494     2.83500
Zr38       Zr  0.34071925  0.24873692  0.49493399     2.84090
Zr39       Zr  0.16368209  0.24820155  0.49798463     2.83360
Zr40       Zr  0.25286190  0.33374237  0.50098375     2.84220
O41         O  0.20856187  0.29189621  0.45342972    -1.08410
O42         O  0.29747737  0.29109130  0.54416176    -1.07910
C43         C  0.25579985  0.35346966  0.61844500     1.06750
C44         C  0.24864988  0.35930163  0.38672053     1.09370
C45         C  0.36368571  0.24531155  0.61101142     1.06920
C46         C  0.14216591  0.24648618  0.61548775     1.07280
C47         C  0.14422685  0.24849339  0.37847870     1.06870
C48         C  0.36182730  0.24946865  0.37641366     1.06420
C49         C  0.36477193  0.35487632  0.49921880     1.06840
C50         C  0.14171288  0.35572406  0.50737069     1.06360
H51         H  0.31469954  0.31048921  0.43277399     0.33030
O52         O  0.29678729  0.29234102  0.45159926    -1.29510
H53         H  0.19048084  0.30752407  0.56593269     0.33060
O54         O  0.20827771  0.29022649  0.54559224    -1.30890
C55         C  0.47922762  0.49663427  0.51223148     0.00720
C56         C  0.02366626  0.49778254  0.51888708     0.00720
O57         O  0.49777345  0.43092525  0.86720332    -0.86330
O58         O  0.49943789  0.43715919  0.12838119    -0.86500
O59         O  0.06909292  0.38182513  0.98663454    -0.88170
O60         O  0.42801445  0.37992392  0.01043953    -0.86920
O61         O  0.37418646  0.42950270  0.00936323    -0.86510
O62         O  0.12163580  0.43342173  0.98247491    -0.87880
O63         O  0.50582711  0.38436290  0.07378824    -0.86360
O64         O  0.49939964  0.38026779  0.92236162    -0.85950
Zr65       Zr  0.49814816  0.41583376  0.99749082     2.84310
O66         O  0.45320777  0.45972114  0.04234355    -1.07920
O67         O  0.04120593  0.45990229  0.95161188    -1.08650
C68         C  0.49954653  0.39219938  0.88035829     1.06780
C69         C  0.50427955  0.39828616  0.11586132     1.06720
C70         C  0.10913435  0.39400006  0.98060248     1.09700
C71         C  0.38758686  0.39106200  0.01470816     1.07480
H72         H  0.06056007  0.44300320  0.05943172     0.33040
O73         O  0.04215176  0.46059254  0.04159207    -1.28880
H74         H  0.43490782  0.43808914  0.93245506     0.32710
O75         O  0.45275732  0.45646319  0.95123270    -1.30550
O76         O  0.49797774  0.07094421  0.12947639    -0.86330
O77         O  0.50000976  0.07077004  0.87065901    -0.87820
O78         O  0.12184815  0.49740746  0.06872523    -0.86400
O79         O  0.37249792  0.50029922  0.07260614    -0.86450
O80         O  0.37473484  0.00034824  0.92111002    -0.86160
O81         O  0.12041613  0.00614236  0.91814578    -0.85970
O82         O  0.06302402  0.12500770  0.01162311    -0.86340
O83         O  0.42631125  0.12276762  0.98872029    -0.85800
O84         O  0.11781233  0.07639058  0.01057863    -0.86870
O85         O  0.37311982  0.07156335  0.98911194    -0.86020
O86         O  0.06766062  0.49958260  0.12407436    -0.86420
O87         O  0.06674373  0.99503205  0.86572701    -0.86150
O88         O  0.42879878  0.00397335  0.86630982    -0.85800
O89         O  0.42510782  0.49806364  0.12728083    -0.86200
O90         O  0.49108054  0.11930323  0.07358018    -0.86500
O91         O  0.50070890  0.12212523  0.92732066    -0.87840
Zr92       Zr  0.49643454  0.50296651  0.08873222     2.83100
Zr93       Zr  0.49740218  0.00043811  0.90562664     2.83500
Zr94       Zr  0.08670667  0.00377292  0.99522854     2.84090
Zr95       Zr  0.40756459  0.00033696  0.99729364     2.83360
Zr96       Zr  0.49549212  0.08623986  0.99866986     2.84220
O97         O  0.45270375  0.04262939  0.95235011    -1.08410
O98         O  0.04073616  0.04529203  0.04259991    -1.07910
C99         C  0.49430866  0.10918535  0.11577007     1.06750
C100        C  0.50125849  0.10973667  0.88527437     1.09370
C101        C  0.10787257  0.49645592  0.11061033     1.06920
C102        C  0.38504575  0.49858683  0.11444173     1.07280
C103        C  0.38840101  0.00389279  0.87912153     1.06870
C104        C  0.10669956  0.00080093  0.87671732     1.06420
C105        C  0.10329893  0.11489425  0.01635378     1.06840
C106        C  0.38608812  0.11084292  0.98536452     1.06360
H107        H  0.05987440  0.06330269  0.93212149     0.33030
O108        O  0.04168933  0.04523760  0.95071967    -1.29510
H109        H  0.43163495  0.06201092  0.06385507     0.33060
O110        O  0.45028353  0.04441150  0.04466591    -1.30890
C111        C  0.26825223  0.25136603  0.00203977     0.00720
C112        C  0.22250036  0.25357402  0.00178932     0.00720
C113        C  0.50753849  0.25813155  0.24098227    -0.02330
C114        C  0.24169465  0.49619201  0.25199281    -0.02330
C115        C  0.49834584  0.24573216  0.75200960    -0.02330
C116        C  0.25112142  0.49981884  0.74163944    -0.02330
C117        C  0.14166498  0.52775269  0.17778837    -0.12110
C118        C  0.14032320  0.49390330  0.14673484     0.04900
C119        C  0.16883695  0.95949306  0.15185673    -0.07400
C120        C  0.19896462  0.96136840  0.18743594    -0.08140
C121        C  0.20161918  0.49590398  0.21911308    -0.02690
C122        C  0.17203995  0.53021354  0.21255401     0.04120
N123        N  0.17389381  0.56992438  0.23669151     0.66630
H124        H  0.11999454  0.55427345  0.17343453     0.15530
H125        H  0.22162464  0.93549642  0.19025604     0.15240
N126        N  0.16699871  0.92181286  0.12320370     0.74340
O127        O  0.20125622  0.59741488  0.22384712    -0.39120
O128        O  0.14093831  0.58181979  0.25986494    -0.39060
O129        O  0.15611215  0.92336908  0.08200881    -0.39760
O130        O  0.17908643  0.38679410  0.13838632    -0.39830
C131        C  0.28149276  0.02278332  0.18163115    -0.12110
C132        C  0.28178641  0.49386703  0.21792446     0.04900
C133        C  0.31765159  0.46507601  0.21789388    -0.07400
C134        C  0.35204232  0.46962039  0.18588844    -0.08140
C135        C  0.35041970  0.49810304  0.15046178    -0.02690
C136        C  0.31395565  0.02387537  0.14804390     0.04120
N137        N  0.30797769  0.05004684  0.11010529     0.66630
H138        H  0.25540142  0.04531197  0.17899545     0.15530
H139        H  0.37909038  0.44875997  0.18659215     0.15240
N140        N  0.32008193  0.43004816  0.24770405     0.74340
O141        O  0.27819755  0.04022459  0.08268451    -0.39120
O142        O  0.33707426  0.07662752  0.09919396    -0.39060
O143        O  0.29724627  0.39748180  0.23958589    -0.39760
O144        O  0.35243615  0.92712730  0.27339152    -0.39830
C145        C  0.04525212  0.34143673  0.15333185    -0.12110
C146        C  0.50890967  0.36774163  0.15300409     0.04900
C147        C  0.47802470  0.36489519  0.18908380    -0.07400
C148        C  0.47963945  0.33150317  0.21943275    -0.08140
C149        C  0.51158907  0.30021691  0.21498707    -0.02690
C150        C  0.04781676  0.30880715  0.18493813     0.04120
N151        N  0.08616380  0.28334717  0.18390345     0.66630
H152        H  0.07121973  0.34540664  0.12814889     0.15530
H153        H  0.45544827  0.33062795  0.24654759     0.15240
N154        N  0.44382343  0.39476254  0.19504933     0.74340
O155        O  0.58871204  0.25163413  0.15713746    -0.39120
O156        O  0.12052027  0.29809364  0.20128692    -0.39060
O157        O  0.40550346  0.38111339  0.20144287    -0.39760
O158        O  0.95329222  0.43204284  0.20781883    -0.39830
C159        C  0.50453510  0.17852258  0.22424696    -0.12110
C160        C  0.50389223  0.21984200  0.20625751     0.04900
C161        C  0.99533660  0.22251511  0.15815429    -0.07400
C162        C  0.99167503  0.18583803  0.13157001    -0.08140
C163        C  0.49480818  0.14532380  0.14931483    -0.02690
C164        C  0.50021120  0.14168703  0.19682872     0.04120
N165        N  0.50050776  0.10133957  0.21827211     0.66630
H166        H  0.50833623  0.17465644  0.26056035     0.15530
H167        H  0.98572851  0.18985020  0.09558058     0.15240
N168        N  0.98890279  0.26093638  0.13391068     0.74340
O169        O  0.02931221  0.09353483  0.24702921    -0.39120
O170        O  0.46759395  0.07729357  0.21556085    -0.39060
O171        O  0.01236090  0.26762886  0.09890492    -0.39760
O172        O  0.45260854  0.27916995  0.13689089    -0.39830
C173        C  0.12687127  0.31747459  0.96239469    -0.12110
C174        C  0.14216429  0.35907361  0.97121593     0.04900
C175        C  0.18807331  0.36493439  0.96737101    -0.07400
C176        C  0.21576536  0.32907840  0.96650471    -0.08140
C177        C  0.19890128  0.28816529  0.97432731    -0.02690
C178        C  0.15557714  0.28266012  0.95916398     0.04120
N179        N  0.14060059  0.24246994  0.94094690     0.66630
H180        H  0.09243315  0.31190675  0.95754497     0.15530
H181        H  0.25032905  0.33384002  0.96177772     0.15240
N182        N  0.20733135  0.40609247  0.96298579     0.74340
O183        O  0.10059222  0.23589059  0.93418866    -0.39120
O184        O  0.16767911  0.21483481  0.92747414    -0.39060
O185        O  0.20379892  0.43301611  0.99521504    -0.39760
O186        O  0.23503034  0.41239567  0.93144203    -0.39830
C187        C  0.28107117  0.32718701  0.03751591    -0.12110
C188        C  0.29612723  0.28615368  0.02637867     0.04900
C189        C  0.34070083  0.28019762  0.03647455    -0.07400
C190        C  0.36994336  0.31478366  0.03234612    -0.08140
C191        C  0.35487167  0.35632050  0.02607657    -0.02690
C192        C  0.30956470  0.36270600  0.03474679     0.04120
N193        N  0.29188107  0.40416238  0.04206467     0.66630
H194        H  0.24684680  0.33240148  0.04450505     0.15530
H195        H  0.40455329  0.30910647  0.03442101     0.15240
N196        N  0.35607248  0.24026360  0.05247449     0.74340
O197        O  0.29148776  0.42988538  0.00974883    -0.39120
O198        O  0.26930699  0.41202916  0.07765385    -0.39060
O199        O  0.39637098  0.23274644  0.05347341    -0.39760
O200        O  0.32978223  0.21450836  0.07082384    -0.39830
C201        C  0.36641884  0.18520266  0.95956283    -0.12110
C202        C  0.35304237  0.14527585  0.97601437     0.04900
C203        C  0.30784537  0.13969455  0.98312786    -0.07400
C204        C  0.27880824  0.17309331  0.97593582    -0.08140
C205        C  0.29362268  0.21506295  0.97636734    -0.02690
C206        C  0.33700094  0.21993552  0.95869031     0.04120
N207        N  0.35148512  0.25958949  0.94028627     0.66630
H208        H  0.40009480  0.18996797  0.94919641     0.15530
H209        H  0.24468536  0.16592634  0.97507513     0.15240
N210        N  0.29228289  0.10645442  0.01079954     0.74340
O211        O  0.39155012  0.26869563  0.93808004    -0.39120
O212        O  0.32437807  0.28508663  0.92461865    -0.39060
O213        O  0.28113683  0.11553136  0.05133802    -0.39760
O214        O  0.28433659  0.07019551  0.99424406    -0.39830
C215        C  0.11852800  0.19311915  0.03137925    -0.12110
C216        C  0.13417226  0.15117103  0.02850144     0.04900
C217        C  0.17780543  0.14603349  0.04218723    -0.07400
C218        C  0.20632665  0.18191651  0.04402251    -0.08140
C219        C  0.19273557  0.22130972  0.02808106    -0.02690
C220        C  0.14757311  0.22794448  0.03623579     0.04120
N221        N  0.13156396  0.26861848  0.05162219     0.66630
H222        H  0.08384942  0.19889071  0.03080679     0.15530
H223        H  0.23950325  0.17860530  0.05442785     0.15240
N224        N  0.19208962  0.10614824  0.05820606     0.74340
O225        O  0.09136855  0.27653918  0.05118242    -0.39120
O226        O  0.15706799  0.29540782  0.06963550    -0.39060
O227        O  0.19958540  0.07585311  0.03051832    -0.39760
O228        O  0.19948953  0.10186278  0.10008331    -0.39830
C229        C  0.36708590  0.00249734  0.79617083    -0.12110
C230        C  0.35552539  0.00886250  0.84262823     0.04900
C231        C  0.31356579  0.52431976  0.85255896    -0.07400
C232        C  0.28307021  0.52661917  0.81824765    -0.08140
C233        C  0.29107582  0.01005538  0.77360844    -0.02690
C234        C  0.33600644  0.00596147  0.76141013     0.04120
N235        N  0.35115750  0.00765709  0.71492587     0.66630
H236        H  0.40063401  0.99594060  0.78660182     0.15530
H237        H  0.25178672  0.53970103  0.82820776     0.15240
N238        N  0.30080685  0.53855888  0.89719867     0.74340
O239        O  0.34444388  0.04076890  0.69291303    -0.39120
O240        O  0.38158277  0.48361221  0.70143823    -0.39060
O241        O  0.29207527  0.07722479  0.90323874    -0.39760
O242        O  0.28522333  0.51192819  0.92468026    -0.39830
C243        C  0.17423040  0.47168583  0.84337102    -0.12110
C244        C  0.13960229  0.99967257  0.83903692     0.04900
C245        C  0.13704358  0.02332957  0.79821853    -0.07400
C246        C  0.17362648  0.02453244  0.76865634    -0.08140
C247        C  0.20958548  0.99771492  0.77364177    -0.02690
C248        C  0.20701989  0.46817441  0.80983107     0.04120
N249        N  0.23790380  0.43475625  0.81351390     0.66630
H250        H  0.17485102  0.45086596  0.87229916     0.15530
H251        H  0.17226953  0.04503124  0.73981762     0.15240
N252        N  0.09816573  0.04460797  0.78408927     0.74340
O253        O  0.26699498  0.43747790  0.84327073    -0.39120
O254        O  0.22891779  0.39888169  0.79630766    -0.39060
O255        O  0.06806654  0.05445898  0.81188799    -0.39760
O256        O  0.09323128  0.55290504  0.74251070    -0.39830
C257        C  0.46599478  0.16970143  0.85037542    -0.12110
C258        C  0.50232884  0.14361807  0.85186565     0.04900
C259        C  0.04005876  0.15424782  0.82630937    -0.07400
C260        C  0.03717895  0.18561456  0.79337656    -0.08140
C261        C  0.49908729  0.21002136  0.78808422    -0.02690
C262        C  0.46525167  0.20442359  0.82168254     0.04120
N263        N  0.43184385  0.23501761  0.83030064     0.66630
H264        H  0.43877868  0.16449419  0.87378662     0.15530
H265        H  0.06659123  0.19279217  0.77431156     0.15240
N266        N  0.08214496  0.13684514  0.83590790     0.74340
O267        O  0.39253222  0.22373466  0.82681725    -0.39120
O268        O  0.44038312  0.26552061  0.85718127    -0.39060
O269        O  0.09064575  0.12449359  0.87543817    -0.39760
O270        O  0.11274940  0.13859320  0.80654888    -0.39830
C271        C  0.03266204  0.29388621  0.81230993    -0.12110
C272        C  0.49772844  0.28786336  0.78180772     0.04900
C273        C  0.46465778  0.31970559  0.78324410    -0.07400
C274        C  0.46724781  0.35393503  0.81450392    -0.08140
C275        C  0.50183588  0.35857798  0.84447846    -0.02690
C276        C  0.03656207  0.32964976  0.84129580     0.04120
N277        N  0.07701047  0.33726687  0.86452959     0.66630
H278        H  0.05864374  0.27095077  0.81165959     0.15530
H279        H  0.44080246  0.37647433  0.81652052     0.15240
N280        N  0.42662156  0.31764067  0.75604692     0.74340
O281        O  0.10583587  0.30899340  0.86420216    -0.39120
O282        O  0.08756209  0.37423910  0.87742376    -0.39060
O283        O  0.39413664  0.29618935  0.76929241    -0.39760
O284        O  0.42113651  0.34600118  0.72715542    -0.39830
C285        C  0.39333716  0.21566838  0.68132418    -0.12110
C286        C  0.39743282  0.24492857  0.64633358     0.04900
C287        C  0.43361449  0.27257424  0.64570305    -0.07400
C288        C  0.46277600  0.27191439  0.68155742    -0.08140
C289        C  0.45995833  0.24258699  0.71748613    -0.02690
C290        C  0.42481551  0.21214159  0.71533837     0.04120
N291        N  0.42087194  0.17569745  0.74369811     0.66630
H292        H  0.36646888  0.19321060  0.68041831     0.15530
H293        H  0.48837173  0.29565974  0.68173938     0.15240
N294        N  0.44091431  0.30259451  0.61009911     0.74340
O295        O  0.38372292  0.16539084  0.75925421    -0.39120
O296        O  0.44969062  0.14752960  0.74117626    -0.39060
O297        O  0.40925845  0.31885155  0.59050104    -0.39760
O298        O  0.47891601  0.31585392  0.60085708    -0.39830
C299        C  0.08083472  0.21126424  0.65477639    -0.12110
C300        C  0.10848947  0.24620014  0.65181250     0.04900
C301        C  0.10345401  0.28010929  0.68327560    -0.07400
C302        C  0.06926275  0.27907908  0.71568704    -0.08140
C303        C  0.04029519  0.24397354  0.71955506    -0.02690
C304        C  0.04761127  0.20938499  0.68800821     0.04120
N305        N  0.02028463  0.17269282  0.68697052     0.66630
H306        H  0.08489460  0.18498020  0.63069874     0.15530
H307        H  0.06431347  0.30784890  0.73533566     0.15240
N308        N  0.13104007  0.31700509  0.68120247     0.74340
O309        O  0.99163155  0.17001301  0.65673395    -0.39120
O310        O  0.53446197  0.13895030  0.70329297    -0.39060
O311        O  0.14185547  0.33227443  0.64315369    -0.39760
O312        O  0.14112504  0.33682783  0.71741091    -0.39830
C313        C  0.25354791  0.06547944  0.62853309    -0.12110
C314        C  0.24766359  0.10667801  0.64539657     0.04900
C315        C  0.24309739  0.11295914  0.69326356    -0.07400
C316        C  0.24605003  0.07819295  0.72229569    -0.08140
C317        C  0.25039580  0.03602009  0.70559503    -0.02690
C318        C  0.25558642  0.03069415  0.65680754     0.04120
N319        N  0.26606724  0.99156353  0.63382236     0.66630
H320        H  0.25843983  0.05975041  0.59219197     0.15530
H321        H  0.24275238  0.08408709  0.75872549     0.15240
N322        N  0.23373736  0.15379274  0.71322594     0.74340
O323        O  0.24174455  0.97842573  0.60215559    -0.39120
O324        O  0.30491542  0.97901770  0.63375404    -0.39060
O325        O  0.19993471  0.17311576  0.70182870    -0.39760
O326        O  0.25385345  0.16643819  0.74819830    -0.39830
C327        C  0.21597002  0.40639245  0.66286692    -0.12110
C328        C  0.25497254  0.38530438  0.65531505     0.04900
C329        C  0.29144641  0.39591610  0.68197979    -0.07400
C330        C  0.28765592  0.42908095  0.71469128    -0.08140
C331        C  0.25080679  0.45563001  0.71684894    -0.02690
C332        C  0.21315537  0.44101674  0.69271179     0.04120
N333        N  0.17213976  0.46208879  0.69539302     0.66630
H334        H  0.18790393  0.39799412  0.64269997     0.15530
H335        H  0.31480855  0.43462268  0.73653968     0.15240
N336        N  0.33350786  0.37701748  0.67346911     0.74340
O337        O  0.16609932  0.49410376  0.67146315    -0.39120
O338        O  0.13954713  0.44307472  0.71235671    -0.39060
O339        O  0.33730832  0.34143238  0.65358523    -0.39760
O340        O  0.36763020  0.39745703  0.68328578    -0.39830
C341        C  0.38036535  0.07052596  0.51460795    -0.12110
C342        C  0.39728415  0.10791928  0.49669730     0.04900
C343        C  0.44202461  0.10855504  0.48311880    -0.07400
C344        C  0.46545954  0.07034049  0.48195418    -0.08140
C345        C  0.45004640  0.03442546  0.50492949    -0.02690
C346        C  0.40578690  0.03511439  0.52041684     0.04120
N347        N  0.38492621  0.00087648  0.54315556     0.66630
H348        H  0.34680836  0.06886327  0.52673071     0.15530
H349        H  0.49737193  0.06998553  0.46593515     0.15240
N350        N  0.46591198  0.14705696  0.47538683     0.74340
O351        O  0.38046784  0.00365777  0.58597550    -0.39120
O352        O  0.35809803  0.47836428  0.52114651    -0.39060
O353        O  0.46240425  0.17735887  0.50394079    -0.39760
O354        O  0.49880400  0.14639649  0.44881098    -0.39830
C355        C  0.07283373  0.10973237  0.53574376    -0.12110
C356        C  0.11269952  0.10435048  0.51187509     0.04900
C357        C  0.12311945  0.06366824  0.49391476    -0.07400
C358        C  0.09057195  0.03320400  0.49141780    -0.08140
C359        C  0.05164531  0.03695007  0.51714053    -0.02690
C360        C  0.04393591  0.07527888  0.54221308     0.04120
N361        N  0.00768347  0.08002283  0.57376226     0.66630
H362        H  0.06574664  0.14000343  0.55213711     0.15530
H363        H  0.09805926  0.00407132  0.47293479     0.15240
N364        N  0.16707867  0.05059326  0.48349733     0.74340
O365        O  0.99400928  0.04921787  0.59684496    -0.39120
O366        O  0.99074769  0.11587154  0.58071228    -0.39060
O367        O  0.19435788  0.05135151  0.51523284    -0.39760
O368        O  0.17450390  0.02640185  0.44945675    -0.39830
C369        C  0.11195458  0.41871661  0.54841257    -0.12110
C370        C  0.10831784  0.38881892  0.51265403     0.04900
C371        C  0.07517664  0.39335970  0.48058651    -0.07400
C372        C  0.04767483  0.42830388  0.48393507    -0.08140
C373        C  0.04942540  0.45730298  0.52086757    -0.02690
C374        C  0.08272168  0.45242748  0.55319911     0.04120
N375        N  0.08990277  0.48358144  0.58847434     0.66630
H376        H  0.13798359  0.41607054  0.57265322     0.15530
H377        H  0.02638512  0.43388234  0.45589146     0.15240
N378        N  0.07074145  0.36459102  0.44258775     0.74340
O379        O  0.12620397  0.50241006  0.59062399    -0.39120
O380        O  0.06001680  0.99288584  0.61701132    -0.39060
O381        O  0.05910465  0.32688201  0.44966336    -0.39760
O382        O  0.06774011  0.37903826  0.40292617    -0.39830
C383        C  0.41243963  0.40150894  0.54386397    -0.12110
C384        C  0.39894345  0.38707185  0.50084815     0.04900
C385        C  0.41773881  0.40438281  0.46086838    -0.07400
C386        C  0.44335097  0.44095967  0.46564324    -0.08140
C387        C  0.45701886  0.45505908  0.50880424    -0.02690
C388        C  0.44481214  0.43232054  0.54785467     0.04120
N389        N  0.46277025  0.44172064  0.59170843     0.66630
H390        H  0.39728260  0.38965139  0.57460663     0.15530
H391        H  0.45422801  0.45786413  0.43565828     0.15240
N392        N  0.41164439  0.38567445  0.41603450     0.74340
O393        O  0.43789704  0.45298173  0.62440687    -0.39120
O394        O  0.49911909  0.42608191  0.60088748    -0.39060
O395        O  0.42019781  0.40672503  0.38075579    -0.39760
O396        O  0.40249700  0.34686021  0.41121493    -0.39830
C397        C  0.08313141  0.28391886  0.34231496    -0.12110
C398        C  0.11181630  0.25007215  0.34149998     0.04900
C399        C  0.11278853  0.22276198  0.30239234    -0.07400
C400        C  0.08139000  0.22721024  0.26828282    -0.08140
C401        C  0.04905980  0.25868751  0.27157222    -0.02690
C402        C  0.05334611  0.28964038  0.30756689     0.04120
N403        N  0.02630560  0.32627727  0.31079603     0.66630
H404        H  0.08485741  0.30706100  0.36972347     0.15530
H405        H  0.08222140  0.20527946  0.23953941     0.15240
N406        N  0.14465464  0.18994870  0.29687955     0.74340
O407        O  0.99641025  0.32811015  0.34093259    -0.39120
O408        O  0.54014109  0.36023463  0.29363299    -0.39060
O409        O  0.15640355  0.16924787  0.33073654    -0.39760
O410        O  0.15830275  0.17899487  0.25748694    -0.39830
C411        C  0.38858074  0.25897952  0.29550591    -0.12110
C412        C  0.39690239  0.24821036  0.34061540     0.04900
C413        C  0.43891920  0.23456997  0.35072530    -0.07400
C414        C  0.47231288  0.23692054  0.31821271    -0.08140
C415        C  0.46638399  0.25318972  0.27403654    -0.02690
C416        C  0.42192931  0.25888452  0.26177154     0.04120
N417        N  0.40878948  0.26083517  0.21545534     0.66630
H418        H  0.35558681  0.26593932  0.28575617     0.15530
H419        H  0.50305375  0.22387478  0.32807645     0.15240
N420        N  0.44755727  0.21445355  0.39264444     0.74340
O421        O  0.40491993  0.22639875  0.19326377    -0.39120
O422        O  0.38646346  0.29195586  0.20357784    -0.39060
O423        O  0.42615079  0.18170623  0.40305161    -0.39760
O424        O  0.47998800  0.22580335  0.41587297    -0.39830
C425        C  0.21445653  0.39220077  0.32045508    -0.12110
C426        C  0.24711136  0.39360956  0.35302398     0.04900
C427        C  0.27473234  0.42953078  0.35526136    -0.07400
C428        C  0.27165314  0.46052372  0.32197675    -0.08140
C429        C  0.24017046  0.45900663  0.28717503    -0.02690
C430        C  0.20839102  0.42550777  0.29016638     0.04120
N431        N  0.16750213  0.42603623  0.26749584     0.66630
H432        H  0.19092181  0.36644516  0.32119903     0.15530
H433        H  0.29533648  0.48605854  0.32261302     0.15240
N434        N  0.30670034  0.43504579  0.39021691     0.74340
O435        O  0.15455548  0.39319847  0.24633460    -0.39120
O436        O  0.14011739  0.45419754  0.27849244    -0.39060
O437        O  0.32570443  0.40358576  0.40609583    -0.39760
O438        O  0.31822429  0.47172777  0.40324291    -0.39830
C439        C  0.20967415  0.04221543  0.31587076    -0.12110
C440        C  0.24366381  0.03727404  0.28291243     0.04900
C441        C  0.27797220  0.06844292  0.28377237    -0.07400
C442        C  0.27537806  0.10298041  0.31413845    -0.08140
C443        C  0.24121138  0.10739936  0.34567087    -0.02690
C444        C  0.20678634  0.07728183  0.34599234     0.04120
N445        N  0.16780278  0.08228355  0.37421157     0.66630
H446        H  0.18382880  0.01877859  0.31658618     0.15530
H447        H  0.30217869  0.12556102  0.31495456     0.15240
N448        N  0.31767768  0.06505887  0.25771540     0.74340
O449        O  0.13613955  0.05689231  0.36954463    -0.39120
O450        O  0.16295732  0.11349276  0.40129069    -0.39060
O451        O  0.32757899  0.09391878  0.23012169    -0.39760
O452        O  0.34755511  0.04191331  0.27205908    -0.39830
O453        O  0.24855761  0.67968260  0.36745877    -0.86330
O454        O  0.25063575  0.68005237  0.62666385    -0.86500
O455        O  0.32487717  0.63227063  0.49274900    -0.88170
O456        O  0.18373708  0.63078142  0.50275404    -0.86920
O457        O  0.12831457  0.67854331  0.50484310    -0.86510
O458        O  0.37934920  0.68179208  0.49207760    -0.87880
O459        O  0.25013785  0.63054143  0.56883352    -0.86360
O460        O  0.24745937  0.62861910  0.42225081    -0.85950
Zr461      Zr  0.25327413  0.66507420  0.49504165     2.84310
O462        O  0.20860335  0.70647685  0.54220691    -1.07920
O463        O  0.29721497  0.70650840  0.44762169    -1.08650
C464        C  0.24575849  0.64089846  0.38070070     1.06780
C465        C  0.24925311  0.64150824  0.61168109     1.06720
C466        C  0.36560234  0.64324411  0.49294625     1.09540
C467        C  0.14334388  0.64044197  0.50637396     1.07480
H468        H  0.31525610  0.68771020  0.55977067     0.33040
O469        O  0.29752245  0.70584519  0.54177137    -1.28880
H470        H  0.18987722  0.68874048  0.43196403     0.32710
O471        O  0.20840986  0.70654805  0.45051875    -1.30550
O472        O  0.25509471  0.81458785  0.63043291    -0.86330
O473        O  0.24944326  0.82056845  0.37129855    -0.87820
O474        O  0.37643282  0.74543419  0.56865926    -0.86400
O475        O  0.12901794  0.74602285  0.57377956    -0.86450
O476        O  0.13048671  0.74861561  0.42088858    -0.86160
O477        O  0.37380740  0.75042349  0.41852784    -0.85970
O478        O  0.32483574  0.86759734  0.50040981    -0.86340
O479        O  0.18196323  0.86809190  0.50759217    -0.85800
O480        O  0.37753934  0.81623293  0.49767128    -0.86870
O481        O  0.12845077  0.81696046  0.50370260    -0.86020
O482        O  0.32364846  0.74575298  0.62529130    -0.86420
O483        O  0.32193114  0.74938610  0.36343074    -0.86150
O484        O  0.18442003  0.74871197  0.36533060    -0.85800
O485        O  0.18218340  0.74757046  0.62816307    -0.86200
O486        O  0.25509157  0.86680138  0.57705454    -0.86500
O487        O  0.24902306  0.87066081  0.42929905    -0.87840
Zr488      Zr  0.25291098  0.74776686  0.58927621     2.83100
Zr489      Zr  0.25258882  0.74990122  0.40478586     2.83500
Zr490      Zr  0.34072022  0.74873586  0.49493515     2.84090
Zr491      Zr  0.16368314  0.74820266  0.49798478     2.83360
Zr492      Zr  0.25286379  0.83374347  0.50098486     2.84220
O493        O  0.20856368  0.79189721  0.45343072    -1.08410
O494        O  0.29747848  0.79109101  0.54416249    -1.07910
C495        C  0.25579989  0.85347042  0.61844549     1.06750
C496        C  0.24865067  0.85930211  0.38672131     1.09370
C497        C  0.36368590  0.74530931  0.61101278     1.06920
C498        C  0.14216643  0.74648610  0.61548793     1.07280
C499        C  0.14422831  0.74849398  0.37847856     1.06870
C500        C  0.36182838  0.74946887  0.37641460     1.06420
C501        C  0.36477651  0.85487454  0.49922391     1.06840
C502        C  0.14171361  0.85572537  0.50737198     1.06360
H503        H  0.31470134  0.81048908  0.43277564     0.33030
O504        O  0.29678872  0.79234097  0.45160068    -1.29510
H505        H  0.19048209  0.80752464  0.56593309     0.33060
O506        O  0.20827908  0.79022716  0.54559258    -1.30890
C507        C  0.47922815  0.99663547  0.51221518     0.00720
C508        C  0.02366500  0.99778192  0.51888025     0.00720
O509        O  0.49777527  0.93092515  0.86720318    -0.86330
O510        O  0.49943861  0.93715928  0.12838108    -0.86500
O511        O  0.06909336  0.88182514  0.98663438    -0.88170
O512        O  0.42801489  0.87992404  0.01043867    -0.86920
O513        O  0.37418701  0.92950289  0.00936176    -0.86510
O514        O  0.12163641  0.93342155  0.98247487    -0.87880
O515        O  0.50582748  0.88436293  0.07378818    -0.86360
O516        O  0.49940050  0.88026775  0.92236161    -0.85950
Zr517      Zr  0.49814877  0.91583388  0.99749069     2.84310
O518        O  0.45320829  0.95972140  0.04234307    -1.07920
O519        O  0.04120712  0.95990223  0.95161196    -1.08650
C520        C  0.49954784  0.89219926  0.88035825     1.06780
C521        C  0.50428006  0.89828620  0.11586127     1.06720
C522        C  0.10913480  0.89399993  0.98060225     1.09700
C523        C  0.38758726  0.89106214  0.01470679     1.07480
H524        H  0.06056077  0.94300312  0.05943185     0.33040
O525        O  0.04215254  0.96059245  0.04159210    -1.28880
H526        H  0.43490921  0.93808946  0.93245427     0.32710
O527        O  0.45275858  0.95646349  0.95123207    -1.30550
O528        O  0.49797745  0.57094411  0.12947679    -0.86330
O529        O  0.50000845  0.57076972  0.87065935    -0.87820
O530        O  0.12184891  0.99740749  0.06872544    -0.86400
O531        O  0.37249848  0.00029974  0.07260515    -0.86450
O532        O  0.37473227  0.50034777  0.92111216    -0.86160
O533        O  0.12041425  0.50614226  0.91814484    -0.85970
O534        O  0.06302288  0.62500808  0.01162282    -0.86340
O535        O  0.42631084  0.62276780  0.98872045    -0.85800
O536        O  0.11781106  0.57639080  0.01057794    -0.86870
O537        O  0.37311976  0.57156331  0.98911210    -0.86020
O538        O  0.06766134  0.99958296  0.12407446    -0.86420
O539        O  0.06674138  0.49503173  0.86572665    -0.86150
O540        O  0.42879583  0.50397340  0.86631167    -0.85800
O541        O  0.42510833  0.99806337  0.12727991    -0.86200
O542        O  0.49107987  0.61930312  0.07358065    -0.86500
O543        O  0.50070816  0.62212484  0.92732107    -0.87840
Zr544      Zr  0.49643521  0.00296656  0.08873191     2.83100
Zr545      Zr  0.49740031  0.50043799  0.90562703     2.83500
Zr546      Zr  0.08670571  0.50377295  0.99522827     2.84090
Zr547      Zr  0.40756376  0.50033673  0.99729465     2.83360
Zr548      Zr  0.49549123  0.58623972  0.99867032     2.84220
O549        O  0.45270244  0.54262934  0.95235088    -1.08410
O550        O  0.04073549  0.54529195  0.04260012    -1.07910
C551        C  0.49430826  0.60918525  0.11577050     1.06750
C552        C  0.50125765  0.60973628  0.88527481     1.09370
C553        C  0.10787333  0.99645618  0.11061051     1.06920
C554        C  0.38504630  0.99858685  0.11444073     1.07280
C555        C  0.38839806  0.50389252  0.87912365     1.06870
C556        C  0.10669729  0.50080073  0.87671650     1.06420
C557        C  0.10329779  0.61489455  0.01635309     1.06840
C558        C  0.38608784  0.61084289  0.98536447     1.06360
H559        H  0.05987292  0.56330240  0.93212149     0.33030
O560        O  0.04168791  0.54523737  0.95071979    -1.29510
H561        H  0.43163414  0.56201092  0.06385583     0.33060
O562        O  0.45028268  0.54441151  0.04466661    -1.30890
C563        C  0.26825201  0.75136575  0.00203872     0.00720
C564        C  0.22250009  0.75357361  0.00178848     0.00720
C565        C  0.50753935  0.75813154  0.24098249    -0.02330
C566        C  0.24169611  0.99619169  0.25199237    -0.02330
C567        C  0.49834665  0.74573142  0.75201031    -0.02330
C568        C  0.25112320  0.99981934  0.74163952    -0.02330
C569        C  0.14166642  0.02775325  0.17778825    -0.12110
C570        C  0.14032414  0.99390373  0.14673491     0.04900
C571        C  0.16883587  0.45949251  0.15185703    -0.07400
C572        C  0.19896341  0.46136815  0.18743642    -0.08140
C573        C  0.20162078  0.99590422  0.21911252    -0.02690
C574        C  0.17204195  0.03021415  0.21255340     0.04120
N575        N  0.17389672  0.06992529  0.23669033     0.66630
H576        H  0.11999610  0.05427412  0.17343445     0.15530
H577        H  0.22162366  0.43549637  0.19025673     0.15240
N578        N  0.16699760  0.42181193  0.12320442     0.74340
O579        O  0.20126036  0.09741477  0.22384623    -0.39120
O580        O  0.14094127  0.08182200  0.25986303    -0.39060
O581        O  0.15610539  0.42336663  0.08201117    -0.39760
O582        O  0.17908426  0.88679425  0.13838641    -0.39830
C583        C  0.28149036  0.52278141  0.18162990    -0.12110
C584        C  0.28178769  0.99386703  0.21792395     0.04900
C585        C  0.31765120  0.96507404  0.21789129    -0.07400
C586        C  0.35204172  0.96961801  0.18588554    -0.08140
C587        C  0.35042044  0.99810286  0.15046087    -0.02690
C588        C  0.31395347  0.52387347  0.14804291     0.04120
N589        N  0.30797530  0.55004441  0.11010388     0.66630
H590        H  0.25539831  0.54530917  0.17899301     0.15530
H591        H  0.37908821  0.94875551  0.18658696     0.15240
N592        N  0.32007966  0.93004451  0.24769943     0.74340
O593        O  0.27819222  0.54022466  0.08268566    -0.39120
O594        O  0.33707192  0.57662464  0.09919143    -0.39060
O595        O  0.29724212  0.89747973  0.23957964    -0.39760
O596        O  0.35243874  0.42713380  0.27339617    -0.39830
C597        C  0.04525275  0.84143675  0.15333182    -0.12110
C598        C  0.50891025  0.86774166  0.15300411     0.04900
C599        C  0.47802534  0.86489514  0.18908391    -0.07400
C600        C  0.47964034  0.83150317  0.21943294    -0.08140
C601        C  0.51158991  0.80021689  0.21498717    -0.02690
C602        C  0.04781748  0.80880711  0.18493807     0.04120
N603        N  0.08616450  0.78334709  0.18390325     0.66630
H604        H  0.07122030  0.84540666  0.12814879     0.15530
H605        H  0.45544927  0.83062795  0.24654788     0.15240
N606        N  0.44382346  0.89476191  0.19504914     0.74340
O607        O  0.58871229  0.75163356  0.15713794    -0.39120
O608        O  0.12052123  0.79809376  0.20128598    -0.39060
O609        O  0.40550398  0.88111201  0.20144412    -0.39760
O610        O  0.95329155  0.93204286  0.20781702    -0.39830
C611        C  0.50453544  0.67852254  0.22424731    -0.12110
C612        C  0.50389278  0.71984195  0.20625781     0.04900
C613        C  0.99533697  0.72251505  0.15815464    -0.07400
C614        C  0.99167515  0.68583797  0.13157040    -0.08140
C615        C  0.49480806  0.64532373  0.14931524    -0.02690
C616        C  0.50021111  0.64168697  0.19682913     0.04120
N617        N  0.50050714  0.60133953  0.21827261     0.66630
H618        H  0.50833663  0.67465643  0.26056070     0.15530
H619        H  0.98572859  0.68985015  0.09558098     0.15240
N620        N  0.98890315  0.76093633  0.13391103     0.74340
O621        O  0.02931123  0.59353461  0.24703004    -0.39120
O622        O  0.46759318  0.57729377  0.21556102    -0.39060
O623        O  0.01236116  0.76762875  0.09890520    -0.39760
O624        O  0.45260891  0.77916990  0.13689133    -0.39830
C625        C  0.12687094  0.81747432  0.96239486    -0.12110
C626        C  0.14216444  0.85907331  0.97121537     0.04900
C627        C  0.18807347  0.86493372  0.96736922    -0.07400
C628        C  0.21576520  0.82907750  0.96650283    -0.08140
C629        C  0.19890088  0.78816468  0.97432640    -0.02690
C630        C  0.15557649  0.78265966  0.95916389     0.04120
N631        N  0.14059942  0.74246951  0.94094721     0.66630
H632        H  0.09243270  0.81190664  0.95754579     0.15530
H633        H  0.25032889  0.83383873  0.96177517     0.15240
N634        N  0.20733182  0.90609153  0.96298242     0.74340
O635        O  0.10059092  0.73589041  0.93418952    -0.39120
O636        O  0.16767759  0.71483415  0.92747418    -0.39060
O637        O  0.20379971  0.93301623  0.99521065    -0.39760
O638        O  0.23503107  0.91239336  0.93143857    -0.39830
C639        C  0.28107118  0.82718727  0.03751370    -0.12110
C640        C  0.29612714  0.78615377  0.02637704     0.04900
C641        C  0.34070073  0.78019776  0.03647313    -0.07400
C642        C  0.36994336  0.81478376  0.03234467    -0.08140
C643        C  0.35487185  0.85632062  0.02607478    -0.02690
C644        C  0.30956481  0.86270620  0.03474441     0.04120
N645        N  0.29188116  0.90416267  0.04206144     0.66630
H646        H  0.24684682  0.83240188  0.04450275     0.15530
H647        H  0.40455326  0.80910654  0.03441989     0.15240
N648        N  0.35607228  0.74026380  0.05247336     0.74340
O649        O  0.29148826  0.92988523  0.00974518    -0.39120
O650        O  0.26930682  0.91202999  0.07765030    -0.39060
O651        O  0.39637076  0.73274658  0.05347240    -0.39760
O652        O  0.32978195  0.71450870  0.07082281    -0.39830
C653        C  0.36641856  0.68520229  0.95956207    -0.12110
C654        C  0.35304203  0.64527555  0.97601374     0.04900
C655        C  0.30784499  0.63969418  0.98312701    -0.07400
C656        C  0.27880796  0.67309295  0.97593455    -0.08140
C657        C  0.29362242  0.71506261  0.97636630    -0.02690
C658        C  0.33700069  0.71993513  0.95868934     0.04120
N659        N  0.35148487  0.75958901  0.94028513     0.66630
H660        H  0.40009456  0.68996761  0.94919579     0.15530
H661        H  0.24468508  0.66592601  0.97507335     0.15240
N662        N  0.29228237  0.60645446  0.01079928     0.74340
O663        O  0.39154984  0.76869534  0.93807936    -0.39120
O664        O  0.32437787  0.78508594  0.92461704    -0.39060
O665        O  0.28113661  0.61553157  0.05133781    -0.39760
O666        O  0.28434213  0.57019340  0.99424611    -0.39830
C667        C  0.11852745  0.69311936  0.03137972    -0.12110
C668        C  0.13417137  0.65117116  0.02850053     0.04900
C669        C  0.17780489  0.64603299  0.04218454    -0.07400
C670        C  0.20632628  0.68191578  0.04402070    -0.08140
C671        C  0.19273533  0.72130941  0.02808045    -0.02690
C672        C  0.14757300  0.72794446  0.03623603     0.04120
N673        N  0.13156442  0.76861859  0.05162271     0.66630
H674        H  0.08384887  0.69889113  0.03080825     0.15530
H675        H  0.23950292  0.67860423  0.05442552     0.15240
N676        N  0.19208979  0.60614659  0.05819934     0.74340
O677        O  0.09136907  0.77653964  0.05118356    -0.39120
O678        O  0.15706897  0.79540776  0.06963548    -0.39060
O679        O  0.19958705  0.57585421  0.03050846    -0.39760
O680        O  0.19948529  0.60185627  0.10007683    -0.39830
C681        C  0.36708305  0.50249750  0.79617322    -0.12110
C682        C  0.35552209  0.50886178  0.84263055     0.04900
C683        C  0.31356974  0.02432177  0.85255679    -0.07400
C684        C  0.28307379  0.02662118  0.81824599    -0.08140
C685        C  0.29107314  0.51005445  0.77360977    -0.02690
C686        C  0.33600390  0.50596146  0.76141228     0.04120
N687        N  0.35115561  0.50765817  0.71492850     0.66630
H688        H  0.40063139  0.49594169  0.78660436     0.15530
H689        H  0.25179065  0.03970370  0.82820635     0.15240
N690        N  0.30081191  0.03856199  0.89719638     0.74340
O691        O  0.34444371  0.54077114  0.69291700    -0.39120
O692        O  0.38158483  0.98361129  0.70143539    -0.39060
O693        O  0.29206420  0.57722044  0.90324045    -0.39760
O694        O  0.28522421  0.01193297  0.92467739    -0.39830
C695        C  0.17423364  0.97168717  0.84337269    -0.12110
C696        C  0.13959966  0.49967201  0.83903570     0.04900
C697        C  0.13704129  0.52332936  0.79821742    -0.07400
C698        C  0.17362432  0.52453189  0.76865531    -0.08140
C699        C  0.20958296  0.49771394  0.77364065    -0.02690
C700        C  0.20702317  0.96817596  0.80983276     0.04120
N701        N  0.23790753  0.93475821  0.81351578     0.66630
H702        H  0.17485459  0.95086759  0.87230104     0.15530
H703        H  0.17226794  0.54503104  0.73981685     0.15240
N704        N  0.09816390  0.54460874  0.78408830     0.74340
O705        O  0.26699928  0.93748080  0.84327191    -0.39120
O706        O  0.22892163  0.89888323  0.79631051    -0.39060
O707        O  0.06806331  0.55445724  0.81188636    -0.39760
O708        O  0.09323167  0.05290153  0.74251120    -0.39830
C709        C  0.46599494  0.66970150  0.85037620    -0.12110
C710        C  0.50232856  0.64361762  0.85186620     0.04900
C711        C  0.04005863  0.65424672  0.82630981    -0.07400
C712        C  0.03717924  0.68561354  0.79337708    -0.08140
C713        C  0.49908795  0.71002087  0.78808500    -0.02690
C714        C  0.46525229  0.70442362  0.82168335     0.04120
N715        N  0.43184470  0.73501793  0.83030118     0.66630
H716        H  0.43877877  0.66449461  0.87378741     0.15530
H717        H  0.06659150  0.69279071  0.77431186     0.15240
N718        N  0.08214454  0.63684322  0.83590806     0.74340
O719        O  0.39253300  0.72373546  0.82681707    -0.39120
O720        O  0.44038398  0.76552072  0.85718210    -0.39060
O721        O  0.09064504  0.62449075  0.87543805    -0.39760
O722        O  0.11274914  0.63859160  0.80654926    -0.39830
C723        C  0.03266294  0.79388555  0.81231053    -0.12110
C724        C  0.49772939  0.78786274  0.78180825     0.04900
C725        C  0.46465891  0.81970508  0.78324439    -0.07400
C726        C  0.46724897  0.85393465  0.81450404    -0.08140
C727        C  0.50183708  0.85857770  0.84447855    -0.02690
C728        C  0.03656315  0.82964930  0.84129609     0.04120
N729        N  0.07701163  0.83726645  0.86452972     0.66630
H730        H  0.05864450  0.77094997  0.81166041     0.15530
H731        H  0.44080370  0.87647406  0.81652044     0.15240
N732        N  0.42662292  0.81764020  0.75604691     0.74340
O733        O  0.10583700  0.80899295  0.86420227    -0.39120
O734        O  0.08756336  0.87423872  0.87742362    -0.39060
O735        O  0.39413705  0.79619070  0.76929331    -0.39760
O736        O  0.42113933  0.84599943  0.72715363    -0.39830
C737        C  0.39333728  0.71566712  0.68132609    -0.12110
C738        C  0.39743321  0.74492650  0.64633474     0.04900
C739        C  0.43361549  0.77257150  0.64570326    -0.07400
C740        C  0.46277666  0.77191251  0.68155790    -0.08140
C741        C  0.45995889  0.74258584  0.71748716    -0.02690
C742        C  0.42481596  0.71214047  0.71533998     0.04120
N743        N  0.42087284  0.67569622  0.74369962     0.66630
H744        H  0.36646874  0.69320961  0.68042081     0.15530
H745        H  0.48837254  0.79565771  0.68173932     0.15240
N746        N  0.44091676  0.80258990  0.61009774     0.74340
O747        O  0.38372403  0.66538936  0.75925609    -0.39120
O748        O  0.44969170  0.64752855  0.74117740    -0.39060
O749        O  0.40926192  0.81884425  0.59049551    -0.39760
O750        O  0.47891873  0.81584919  0.60085683    -0.39830
C751        C  0.08083518  0.71126384  0.65477649    -0.12110
C752        C  0.10848992  0.74619977  0.65181267     0.04900
C753        C  0.10345469  0.78010862  0.68327617    -0.07400
C754        C  0.06926358  0.77907826  0.71568774    -0.08140
C755        C  0.04029600  0.74397274  0.71955569    -0.02690
C756        C  0.04761193  0.70938435  0.68800858     0.04120
N757        N  0.02028525  0.67269223  0.68697083     0.66630
H758        H  0.08489495  0.68497994  0.63069864     0.15530
H759        H  0.06431447  0.80784802  0.73533650     0.15240
N760        N  0.13104084  0.81700435  0.68120330     0.74340
O761        O  0.99163176  0.67001276  0.65673466    -0.39120
O762        O  0.53446272  0.63894953  0.70329277    -0.39060
O763        O  0.14185592  0.83227411  0.64315463    -0.39760
O764        O  0.14112624  0.83682661  0.71741189    -0.39830
C765        C  0.25354981  0.56547960  0.62853344    -0.12110
C766        C  0.24766354  0.60667793  0.64539686     0.04900
C767        C  0.24309565  0.61295878  0.69326377    -0.07400
C768        C  0.24604827  0.57819256  0.72229589    -0.08140
C769        C  0.25039518  0.53601984  0.70559517    -0.02690
C770        C  0.25558811  0.53069422  0.65680780     0.04120
N771        N  0.26607078  0.49156392  0.63382274     0.66630
H772        H  0.25844332  0.55975089  0.59219246     0.15530
H773        H  0.24274942  0.58408643  0.75872565     0.15240
N774        N  0.23373364  0.65379205  0.71322595     0.74340
O775        O  0.24174905  0.47842550  0.60215544    -0.39120
O776        O  0.30491954  0.47901963  0.63375464    -0.39060
O777        O  0.19993132  0.67311449  0.70182668    -0.39760
O778        O  0.25384745  0.66643767  0.74819971    -0.39830
C779        C  0.21597057  0.90639174  0.66286947    -0.12110
C780        C  0.25497356  0.88530499  0.65531548     0.04900
C781        C  0.29144872  0.89591791  0.68197808    -0.07400
C782        C  0.28765758  0.92908137  0.71469127    -0.08140
C783        C  0.25080815  0.95563006  0.71684988    -0.02690
C784        C  0.21315623  0.94101608  0.69271421     0.04120
N785        N  0.17214050  0.96208782  0.69539624     0.66630
H786        H  0.18790389  0.89799281  0.64270371     0.15530
H787        H  0.31481023  0.93462315  0.73653951     0.15240
N788        N  0.33351158  0.87702265  0.67346348     0.74340
O789        O  0.16609893  0.99410176  0.67146512    -0.39120
O790        O  0.13954863  0.94307408  0.71236197    -0.39060
O791        O  0.33731519  0.84144738  0.65355906    -0.39760
O792        O  0.36763261  0.89745921  0.68329208    -0.39830
C793        C  0.38036519  0.57052612  0.51461766    -0.12110
C794        C  0.39728315  0.60791677  0.49669983     0.04900
C795        C  0.44202301  0.60855033  0.48311896    -0.07400
C796        C  0.46545738  0.57033542  0.48195867    -0.08140
C797        C  0.45004609  0.53442433  0.50494272    -0.02690
C798        C  0.40578801  0.53511639  0.52043360     0.04120
N799        N  0.38493236  0.50088587  0.54318911     0.66630
H800        H  0.34680913  0.56886583  0.52674379     0.15530
H801        H  0.49736831  0.56997797  0.46593645     0.15240
N802        N  0.46591076  0.64705092  0.47538132     0.74340
O803        O  0.38050023  0.50367204  0.58601132    -0.39120
O804        O  0.35810803  0.97835312  0.52109339    -0.39060
O805        O  0.46240587  0.67735511  0.50393281    -0.39760
O806        O  0.49880100  0.64638744  0.44880306    -0.39830
C807        C  0.07283322  0.60973467  0.53574463    -0.12110
C808        C  0.11269836  0.60435262  0.51187477     0.04900
C809        C  0.12311709  0.56367070  0.49391286    -0.07400
C810        C  0.09056870  0.53320738  0.49141553    -0.08140
C811        C  0.05164427  0.53695225  0.51714243    -0.02690
C812        C  0.04393578  0.57528114  0.54221521     0.04120
N813        N  0.00768477  0.58002511  0.57376615     0.66630
H814        H  0.06574680  0.64000560  0.55213862     0.15530
H815        H  0.09805470  0.50407522  0.47293094     0.15240
N816        N  0.16707612  0.55059443  0.48349608     0.74340
O817        O  0.99401427  0.54922125  0.59685285    -0.39120
O818        O  0.99074620  0.61587301  0.58071299    -0.39060
O819        O  0.19435522  0.55135307  0.51523171    -0.39760
O820        O  0.17450087  0.52640149  0.44945666    -0.39830
C821        C  0.11194609  0.91871369  0.54841689    -0.12110
C822        C  0.10831711  0.88881950  0.51265377     0.04900
C823        C  0.07517918  0.89336071  0.48058239    -0.07400
C824        C  0.04767567  0.92830377  0.48392918    -0.08140
C825        C  0.04942059  0.95730052  0.52086410    -0.02690
C826        C  0.08270903  0.95242150  0.55320277     0.04120
N827        N  0.08987569  0.98356860  0.58848771     0.66630
H828        H  0.13797062  0.91606623  0.57266255     0.15530
H829        H  0.02638782  0.93388261  0.45588372     0.15240
N830        N  0.07074769  0.86459231  0.44258303     0.74340
O831        O  0.12616919  0.00241041  0.59064606    -0.39120
O832        O  0.06005122  0.49291576  0.61699999    -0.39060
O833        O  0.05910949  0.82688352  0.44965766    -0.39760
O834        O  0.06774902  0.87903993  0.40292133    -0.39830
C835        C  0.41245869  0.90150533  0.54386072    -0.12110
C836        C  0.39894991  0.88706937  0.50084793     0.04900
C837        C  0.41773646  0.90438081  0.46086340    -0.07400
C838        C  0.44334590  0.94096022  0.46563142    -0.08140
C839        C  0.45701990  0.95506130  0.50878902    -0.02690
C840        C  0.44482911  0.93231976  0.54784068     0.04120
N841        N  0.46281238  0.94171221  0.59168360     0.66630
H842        H  0.39731313  0.88964750  0.57460890     0.15530
H843        H  0.45421682  0.95786460  0.43564417     0.15240
N844        N  0.41163793  0.88566909  0.41603174     0.74340
O845        O  0.43797669  0.95309869  0.62436343    -0.39120
O846        O  0.49910715  0.92596977  0.60088682    -0.39060
O847        O  0.42018785  0.90671713  0.38075038    -0.39760
O848        O  0.40249224  0.84685412  0.41121637    -0.39830
C849        C  0.08313325  0.78391934  0.34231422    -0.12110
C850        C  0.11181782  0.75007246  0.34149967     0.04900
C851        C  0.11278964  0.72276187  0.30239236    -0.07400
C852        C  0.08139088  0.72720993  0.26828297    -0.08140
C853        C  0.04906083  0.75868739  0.27157222    -0.02690
C854        C  0.05334755  0.78964054  0.30756651     0.04120
N855        N  0.02630715  0.82627751  0.31079564     0.66630
H856        H  0.08485991  0.80706191  0.36972205     0.15530
H857        H  0.08222198  0.70527887  0.23953981     0.15240
N858        N  0.14465563  0.68994850  0.29687969     0.74340
O859        O  0.99641187  0.82811051  0.34093227    -0.39120
O860        O  0.54014272  0.86023482  0.29363256    -0.39060
O861        O  0.15640479  0.66924802  0.33073682    -0.39760
O862        O  0.15830349  0.67899432  0.25748709    -0.39830
C863        C  0.38858178  0.75898011  0.29550678    -0.12110
C864        C  0.39690349  0.74821083  0.34061623     0.04900
C865        C  0.43892028  0.73457017  0.35072588    -0.07400
C866        C  0.47231395  0.73692087  0.31821323    -0.08140
C867        C  0.46638495  0.75318995  0.27403703    -0.02690
C868        C  0.42193021  0.75888483  0.26177223     0.04120
N869        N  0.40879017  0.76083516  0.21545607     0.66630
H870        H  0.35558784  0.76594001  0.28575716     0.15530
H871        H  0.50305483  0.72387501  0.32807679     0.15240
N872        N  0.44755802  0.71445265  0.39264446     0.74340
O873        O  0.40492070  0.72639861  0.19326473    -0.39120
O874        O  0.38646391  0.79195565  0.20357850    -0.39060
O875        O  0.42614994  0.68170621  0.40305134    -0.39760
O876        O  0.47998994  0.72580014  0.41587238    -0.39830
C877        C  0.21445730  0.89220115  0.32045571    -0.12110
C878        C  0.24711229  0.89360994  0.35302451     0.04900
C879        C  0.27473396  0.92953081  0.35526099    -0.07400
C880        C  0.27165536  0.96052288  0.32197538    -0.08140
C881        C  0.24017201  0.95900616  0.28717436    -0.02690
C882        C  0.20839214  0.92550780  0.29016642     0.04120
N883        N  0.16750342  0.92603629  0.26749557     0.66630
H884        H  0.19092226  0.86644583  0.32120011     0.15530
H885        H  0.29533919  0.98605722  0.32261085     0.15240
N886        N  0.30670157  0.93504682  0.39021689     0.74340
O887        O  0.15455681  0.89319845  0.24633445    -0.39120
O888        O  0.14011871  0.95419774  0.27849178    -0.39060
O889        O  0.32570202  0.90358706  0.40610089    -0.39760
O890        O  0.31822796  0.97172913  0.40323930    -0.39830
C891        C  0.20967335  0.54221592  0.31587158    -0.12110
C892        C  0.24366226  0.53727484  0.28291230     0.04900
C893        C  0.27796971  0.56844479  0.28377059    -0.07400
C894        C  0.27537625  0.60298187  0.31413725    -0.08140
C895        C  0.24121067  0.60740009  0.34567101    -0.02690
C896        C  0.20678580  0.57728241  0.34599310     0.04120
N897        N  0.16780249  0.58228424  0.37421270     0.66630
H898        H  0.18382830  0.51877878  0.31658781     0.15530
H899        H  0.30217639  0.62556305  0.31495221     0.15240
N900        N  0.31767324  0.56506320  0.25771008     0.74340
O901        O  0.13613908  0.55689318  0.36954588    -0.39120
O902        O  0.16295708  0.61349380  0.40129135    -0.39060
O903        O  0.32756933  0.59392300  0.23011434    -0.39760
O904        O  0.34755435  0.54192130  0.27205234    -0.39830
O905        O  0.74855692  0.17968206  0.36745821    -0.86330
O906        O  0.75063558  0.18005235  0.62666334    -0.86500
O907        O  0.82487796  0.13227253  0.49274862    -0.88170
O908        O  0.68373785  0.13078029  0.50275398    -0.86920
O909        O  0.62831466  0.17854147  0.50484288    -0.86510
O910        O  0.87934947  0.18179434  0.49207690    -0.87880
O911        O  0.75013840  0.13054130  0.56883319    -0.86360
O912        O  0.74745962  0.12861885  0.42225061    -0.85950
Zr913      Zr  0.75327431  0.16507418  0.49504146     2.84310
O914        O  0.70860280  0.20647609  0.54220675    -1.07920
O915        O  0.79721444  0.20650857  0.44762094    -1.08650
C916        C  0.74575848  0.14089797  0.38070040     1.06780
C917        C  0.74925331  0.14150820  0.61168070     1.06720
C918        C  0.86560299  0.14324635  0.49294560     1.09540
C919        C  0.64334451  0.14044030  0.50637394     1.07480
H920        H  0.81525655  0.18771100  0.55977005     0.33040
O921        O  0.79752253  0.20584562  0.54177076    -1.28880
H922        H  0.68987701  0.18873958  0.43196387     0.32710
O923        O  0.70840926  0.20654730  0.45051834    -1.30550
O924        O  0.75509422  0.31458718  0.63043256    -0.86330
O925        O  0.74944212  0.32056801  0.37129766    -0.87820
O926        O  0.87643272  0.24543835  0.56865795    -0.86400
O927        O  0.62901724  0.24602245  0.57377947    -0.86450
O928        O  0.63048534  0.24861456  0.42088872    -0.86160
O929        O  0.87380636  0.25042372  0.41852684    -0.85970
O930        O  0.82483120  0.36759830  0.50040625    -0.86340
O931        O  0.68196239  0.36809032  0.50759015    -0.85800
O932        O  0.87753604  0.31623513  0.49766617    -0.86870
O933        O  0.62844955  0.31695927  0.50370200    -0.86020
O934        O  0.82364821  0.24575304  0.62528987    -0.86420
O935        O  0.82193007  0.24938565  0.36342979    -0.86150
O936        O  0.68441853  0.24871152  0.36533055    -0.85800
O937        O  0.68218294  0.24757063  0.62816272    -0.86200
O938        O  0.75509131  0.36680033  0.57705385    -0.86500
O939        O  0.74902253  0.37066022  0.42929827    -0.87840
Zr940      Zr  0.75291041  0.24776662  0.58927554     2.83100
Zr941      Zr  0.75258778  0.24990082  0.40478495     2.83500
Zr942      Zr  0.84071926  0.24873692  0.49493399     2.84090
Zr943      Zr  0.66368210  0.24820155  0.49798463     2.83360
Zr944      Zr  0.75286190  0.33374236  0.50098376     2.84220
O945        O  0.70856187  0.29189620  0.45342973    -1.08410
O946        O  0.79747737  0.29109130  0.54416177    -1.07910
C947        C  0.75579985  0.35346966  0.61844501     1.06750
C948        C  0.74864988  0.35930163  0.38672053     1.09370
C949        C  0.86368571  0.24531156  0.61101142     1.06920
C950        C  0.64216591  0.24648617  0.61548775     1.07280
C951        C  0.64422685  0.24849339  0.37847870     1.06870
C952        C  0.86182730  0.24946865  0.37641366     1.06420
C953        C  0.86477194  0.35487632  0.49921880     1.06840
C954        C  0.64171288  0.35572405  0.50737069     1.06360
H955        H  0.81469954  0.31048920  0.43277399     0.33030
O956        O  0.79678729  0.29234101  0.45159926    -1.29510
H957        H  0.69048084  0.30752406  0.56593269     0.33060
O958        O  0.70827771  0.29022649  0.54559224    -1.30890
C959        C  0.97922761  0.49663427  0.51223147     0.00720
C960        C  0.52366627  0.49778253  0.51888708     0.00720
O961        O  0.99777345  0.43092526  0.86720332    -0.86330
O962        O  0.99943789  0.43715920  0.12838119    -0.86500
O963        O  0.56909292  0.38182512  0.98663454    -0.88170
O964        O  0.92801445  0.37992393  0.01043953    -0.86920
O965        O  0.87418646  0.42950270  0.00936323    -0.86510
O966        O  0.62163580  0.43342173  0.98247492    -0.87880
O967        O  0.00582711  0.38436290  0.07378824    -0.86360
O968        O  0.99939964  0.38026780  0.92236162    -0.85950
Zr969      Zr  0.99814816  0.41583376  0.99749082     2.84310
O970        O  0.95320777  0.45972115  0.04234355    -1.07920
O971        O  0.54120593  0.45990229  0.95161188    -1.08650
C972        C  0.99954653  0.39219938  0.88035829     1.06780
C973        C  0.00427955  0.39828616  0.11586132     1.06720
C974        C  0.60913435  0.39400005  0.98060248     1.09700
C975        C  0.88758686  0.39106200  0.01470816     1.07480
H976        H  0.56056008  0.44300320  0.05943172     0.33040
O977        O  0.54215176  0.46059254  0.04159207    -1.28880
H978        H  0.93490781  0.43808914  0.93245506     0.32710
O979        O  0.95275732  0.45646319  0.95123270    -1.30550
O980        O  0.99797776  0.07094421  0.12947638    -0.86330
O981        O  0.00000976  0.07077004  0.87065900    -0.87820
O982        O  0.62184815  0.49740746  0.06872523    -0.86400
O983        O  0.87249792  0.50029922  0.07260614    -0.86450
O984        O  0.87473485  0.00034823  0.92111001    -0.86160
O985        O  0.62041612  0.00614236  0.91814579    -0.85970
O986        O  0.56302402  0.12500770  0.01162313    -0.86340
O987        O  0.92631124  0.12276760  0.98872030    -0.85800
O988        O  0.61781233  0.07639057  0.01057865    -0.86870
O989        O  0.87311981  0.07156334  0.98911195    -0.86020
O990        O  0.56766062  0.49958260  0.12407436    -0.86420
O991        O  0.56674373  0.99503206  0.86572702    -0.86150
O992        O  0.92879879  0.00397334  0.86630981    -0.85800
O993        O  0.92510782  0.49806364  0.12728083    -0.86200
O994        O  0.99108055  0.11930323  0.07358017    -0.86500
O995        O  0.00070890  0.12212523  0.92732065    -0.87840
Zr996      Zr  0.99643454  0.50296651  0.08873222     2.83100
Zr997      Zr  0.99740219  0.00043810  0.90562663     2.83500
Zr998      Zr  0.58670665  0.00377292  0.99522856     2.84090
Zr999      Zr  0.90756460  0.00033695  0.99729364     2.83360
Zr1000     Zr  0.99549212  0.08623985  0.99866985     2.84220
O1001       O  0.95270376  0.04262939  0.95235010    -1.08410
O1002       O  0.54073615  0.04529203  0.04259993    -1.07910
C1003       C  0.99430867  0.10918535  0.11577005     1.06750
C1004       C  0.00125849  0.10973667  0.88527436     1.09370
C1005       C  0.60787257  0.49645592  0.11061033     1.06920
C1006       C  0.88504575  0.49858683  0.11444173     1.07280
C1007       C  0.88840101  0.00389278  0.87912153     1.06870
C1008       C  0.60669955  0.00080094  0.87671733     1.06420
C1009       C  0.60329893  0.11489425  0.01635380     1.06840
C1010       C  0.88608811  0.11084291  0.98536453     1.06360
H1011       H  0.55987440  0.06330269  0.93212150     0.33030
O1012       O  0.54168933  0.04523760  0.95071968    -1.29510
H1013       H  0.93163496  0.06201091  0.06385506     0.33060
O1014       O  0.95028355  0.04441149  0.04466590    -1.30890
C1015       C  0.76825222  0.25136603  0.00203979     0.00720
C1016       C  0.72250035  0.25357402  0.00178934     0.00720
C1017       C  0.00753849  0.25813155  0.24098227    -0.02330
C1018       C  0.74169465  0.49619202  0.25199281    -0.02330
C1019       C  0.99834585  0.24573217  0.75200960    -0.02330
C1020       C  0.75112141  0.49981885  0.74163944    -0.02330
C1021       C  0.64166499  0.52775269  0.17778837    -0.12110
C1022       C  0.64032320  0.49390329  0.14673485     0.04900
C1023       C  0.66883691  0.95949302  0.15185676    -0.07400
C1024       C  0.69896461  0.96136840  0.18743596    -0.08140
C1025       C  0.70161918  0.49590398  0.21911308    -0.02690
C1026       C  0.67203996  0.53021354  0.21255401     0.04120
N1027       N  0.67389382  0.56992439  0.23669150     0.66630
H1028       H  0.61999455  0.55427345  0.17343452     0.15530
H1029       H  0.72162462  0.93549641  0.19025608     0.15240
N1030       N  0.66699862  0.92181278  0.12320379     0.74340
O1031       O  0.70125624  0.59741488  0.22384710    -0.39120
O1032       O  0.64093833  0.58181980  0.25986492    -0.39060
O1033       O  0.65611168  0.92336888  0.08200901    -0.39760
O1034       O  0.67908645  0.38679409  0.13838633    -0.39830
C1035       C  0.78149278  0.02278330  0.18163112    -0.12110
C1036       C  0.78178641  0.49386703  0.21792446     0.04900
C1037       C  0.81765159  0.46507602  0.21789388    -0.07400
C1038       C  0.85204232  0.46962039  0.18588844    -0.08140
C1039       C  0.85041971  0.49810304  0.15046178    -0.02690
C1040       C  0.81395567  0.02387534  0.14804387     0.04120
N1041       N  0.80797770  0.05004679  0.11010525     0.66630
H1042       H  0.75540143  0.04531194  0.17899539     0.15530
H1043       H  0.87909038  0.44875997  0.18659215     0.15240
N1044       N  0.82008194  0.43004816  0.24770405     0.74340
O1045       O  0.77819758  0.04022453  0.08268447    -0.39120
O1046       O  0.83707427  0.07662748  0.09919391    -0.39060
O1047       O  0.79724628  0.39748180  0.23958589    -0.39760
O1048       O  0.85243622  0.92712743  0.27339161    -0.39830
C1049       C  0.54525212  0.34143673  0.15333185    -0.12110
C1050       C  0.00890967  0.36774163  0.15300409     0.04900
C1051       C  0.97802470  0.36489519  0.18908380    -0.07400
C1052       C  0.97963945  0.33150317  0.21943275    -0.08140
C1053       C  0.01158907  0.30021691  0.21498707    -0.02690
C1054       C  0.54781677  0.30880714  0.18493814     0.04120
N1055       N  0.58616380  0.28334716  0.18390345     0.66630
H1056       H  0.57121973  0.34540664  0.12814889     0.15530
H1057       H  0.95544827  0.33062795  0.24654758     0.15240
N1058       N  0.94382343  0.39476254  0.19504933     0.74340
O1059       O  0.08871204  0.25163413  0.15713746    -0.39120
O1060       O  0.62052027  0.29809364  0.20128692    -0.39060
O1061       O  0.90550345  0.38111339  0.20144286    -0.39760
O1062       O  0.45329222  0.43204284  0.20781883    -0.39830
C1063       C  0.00453511  0.17852258  0.22424695    -0.12110
C1064       C  0.00389224  0.21984200  0.20625750     0.04900
C1065       C  0.49533659  0.22251511  0.15815430    -0.07400
C1066       C  0.49167502  0.18583803  0.13157002    -0.08140
C1067       C  0.99480819  0.14532380  0.14931481    -0.02690
C1068       C  0.00021121  0.14168703  0.19682871     0.04120
N1069       N  0.00050777  0.10133957  0.21827210     0.66630
H1070       H  0.00833623  0.17465644  0.26056034     0.15530
H1071       H  0.48572850  0.18985020  0.09558059     0.15240
N1072       N  0.48890279  0.26093638  0.13391068     0.74340
O1073       O  0.52931221  0.09353483  0.24702922    -0.39120
O1074       O  0.96759395  0.07729357  0.21556083    -0.39060
O1075       O  0.51236090  0.26762885  0.09890493    -0.39760
O1076       O  0.95260854  0.27916995  0.13689089    -0.39830
C1077       C  0.62687128  0.31747459  0.96239469    -0.12110
C1078       C  0.64216429  0.35907361  0.97121594     0.04900
C1079       C  0.68807331  0.36493438  0.96737103    -0.07400
C1080       C  0.71576536  0.32907840  0.96650474    -0.08140
C1081       C  0.69890128  0.28816529  0.97432733    -0.02690
C1082       C  0.65557714  0.28266012  0.95916399     0.04120
N1083       N  0.64060060  0.24246994  0.94094690     0.66630
H1084       H  0.59243315  0.31190675  0.95754497     0.15530
H1085       H  0.75032906  0.33384002  0.96177775     0.15240
N1086       N  0.70733135  0.40609247  0.96298583     0.74340
O1087       O  0.60059224  0.23589058  0.93418865    -0.39120
O1088       O  0.66767913  0.21483481  0.92747416    -0.39060
O1089       O  0.70379891  0.43301610  0.99521507    -0.39760
O1090       O  0.73503035  0.41239568  0.93144207    -0.39830
C1091       C  0.78107118  0.32718701  0.03751593    -0.12110
C1092       C  0.79612723  0.28615368  0.02637869     0.04900
C1093       C  0.84070084  0.28019763  0.03647456    -0.07400
C1094       C  0.86994337  0.31478366  0.03234612    -0.08140
C1095       C  0.85487167  0.35632050  0.02607658    -0.02690
C1096       C  0.80956471  0.36270600  0.03474681     0.04120
N1097       N  0.79188107  0.40416238  0.04206470     0.66630
H1098       H  0.74684680  0.33240147  0.04450508     0.15530
H1099       H  0.90455330  0.30910647  0.03442101     0.15240
N1100       N  0.85607249  0.24026360  0.05247451     0.74340
O1101       O  0.79148776  0.42988538  0.00974886    -0.39120
O1102       O  0.76930699  0.41202915  0.07765387    -0.39060
O1103       O  0.89637099  0.23274645  0.05347342    -0.39760
O1104       O  0.82978224  0.21450837  0.07082386    -0.39830
C1105       C  0.86641883  0.18520264  0.95956285    -0.12110
C1106       C  0.85304236  0.14527584  0.97601440     0.04900
C1107       C  0.80784536  0.13969454  0.98312790    -0.07400
C1108       C  0.77880823  0.17309330  0.97593586    -0.08140
C1109       C  0.79362267  0.21506294  0.97636737    -0.02690
C1110       C  0.83700093  0.21993551  0.95869033     0.04120
N1111       N  0.85148511  0.25958947  0.94028629     0.66630
H1112       H  0.90009479  0.18996796  0.94919642     0.15530
H1113       H  0.74468535  0.16592633  0.97507518     0.15240
N1114       N  0.79228288  0.10645440  0.01079957     0.74340
O1115       O  0.89155010  0.26869561  0.93808004    -0.39120
O1116       O  0.82437805  0.28508661  0.92461867    -0.39060
O1117       O  0.78113680  0.11553134  0.05133804    -0.39760
O1118       O  0.78433651  0.07019552  0.99424405    -0.39830
C1119       C  0.61852800  0.19311915  0.03137926    -0.12110
C1120       C  0.63417226  0.15117103  0.02850147     0.04900
C1121       C  0.67780542  0.14603350  0.04218728    -0.07400
C1122       C  0.70632665  0.18191651  0.04402256    -0.08140
C1123       C  0.69273556  0.22130972  0.02808109    -0.02690
C1124       C  0.64757311  0.22794448  0.03623580     0.04120
N1125       N  0.63156395  0.26861848  0.05162219     0.66630
H1126       H  0.58384941  0.19889070  0.03080678     0.15530
H1127       H  0.73950324  0.17860530  0.05442790     0.15240
N1128       N  0.69208960  0.10614826  0.05820617     0.74340
O1129       O  0.59136854  0.27653917  0.05118241    -0.39120
O1130       O  0.65706797  0.29540782  0.06963551    -0.39060
O1131       O  0.69958536  0.07585309  0.03051847    -0.39760
O1132       O  0.69948956  0.10186287  0.10008342    -0.39830
C1133       C  0.86708590  0.00249733  0.79617083    -0.12110
C1134       C  0.85552540  0.00886249  0.84262822     0.04900
C1135       C  0.81356579  0.52431976  0.85255895    -0.07400
C1136       C  0.78307021  0.52661917  0.81824765    -0.08140
C1137       C  0.79107581  0.01005537  0.77360844    -0.02690
C1138       C  0.83600643  0.00596146  0.76141013     0.04120
N1139       N  0.85115749  0.00765709  0.71492587     0.66630
H1140       H  0.90063400  0.99594059  0.78660181     0.15530
H1141       H  0.75178672  0.53970104  0.82820776     0.15240
N1142       N  0.80080684  0.53855888  0.89719867     0.74340
O1143       O  0.84444387  0.04076890  0.69291304    -0.39120
O1144       O  0.88158277  0.48361221  0.70143823    -0.39060
O1145       O  0.79207534  0.07722480  0.90323875    -0.39760
O1146       O  0.78522333  0.51192819  0.92468026    -0.39830
C1147       C  0.67423041  0.47168583  0.84337102    -0.12110
C1148       C  0.63960228  0.99967258  0.83903694     0.04900
C1149       C  0.63704357  0.02332957  0.79821854    -0.07400
C1150       C  0.67362647  0.02453244  0.76865636    -0.08140
C1151       C  0.70958547  0.99771492  0.77364178    -0.02690
C1152       C  0.70701989  0.46817442  0.80983107     0.04120
N1153       N  0.73790381  0.43475625  0.81351391     0.66630
H1154       H  0.67485103  0.45086596  0.87229916     0.15530
H1155       H  0.67226953  0.04503124  0.73981763     0.15240
N1156       N  0.59816573  0.04460798  0.78408929     0.74340
O1157       O  0.76699497  0.43747791  0.84327075    -0.39120
O1158       O  0.72891781  0.39888170  0.79630765    -0.39060
O1159       O  0.56806654  0.05445899  0.81188801    -0.39760
O1160       O  0.59323128  0.55290502  0.74251070    -0.39830
C1161       C  0.96599478  0.16970143  0.85037542    -0.12110
C1162       C  0.00232884  0.14361807  0.85186564     0.04900
C1163       C  0.54005876  0.15424783  0.82630938    -0.07400
C1164       C  0.53717895  0.18561456  0.79337656    -0.08140
C1165       C  0.99908729  0.21002136  0.78808422    -0.02690
C1166       C  0.96525167  0.20442360  0.82168254     0.04120
N1167       N  0.93184385  0.23501762  0.83030064     0.66630
H1168       H  0.93877868  0.16449419  0.87378661     0.15530
H1169       H  0.56659123  0.19279217  0.77431157     0.15240
N1170       N  0.58214496  0.13684515  0.83590792     0.74340
O1171       O  0.89253222  0.22373467  0.82681725    -0.39120
O1172       O  0.94038313  0.26552062  0.85718128    -0.39060
O1173       O  0.59064575  0.12449360  0.87543818    -0.39760
O1174       O  0.61274941  0.13859321  0.80654890    -0.39830
C1175       C  0.53266204  0.29388621  0.81230993    -0.12110
C1176       C  0.99772844  0.28786336  0.78180772     0.04900
C1177       C  0.96465778  0.31970559  0.78324410    -0.07400
C1178       C  0.96724781  0.35393503  0.81450392    -0.08140
C1179       C  0.00183588  0.35857798  0.84447846    -0.02690
C1180       C  0.53656207  0.32964976  0.84129580     0.04120
N1181       N  0.57701047  0.33726687  0.86452960     0.66630
H1182       H  0.55864374  0.27095077  0.81165959     0.15530
H1183       H  0.94080246  0.37647433  0.81652052     0.15240
N1184       N  0.92662156  0.31764067  0.75604692     0.74340
O1185       O  0.60583587  0.30899340  0.86420216    -0.39120
O1186       O  0.58756209  0.37423910  0.87742376    -0.39060
O1187       O  0.89413664  0.29618935  0.76929241    -0.39760
O1188       O  0.92113650  0.34600118  0.72715542    -0.39830
C1189       C  0.89333716  0.21566838  0.68132418    -0.12110
C1190       C  0.89743282  0.24492858  0.64633358     0.04900
C1191       C  0.93361449  0.27257424  0.64570305    -0.07400
C1192       C  0.96277600  0.27191440  0.68155742    -0.08140
C1193       C  0.95995833  0.24258700  0.71748613    -0.02690
C1194       C  0.92481551  0.21214160  0.71533837     0.04120
N1195       N  0.92087194  0.17569745  0.74369811     0.66630
H1196       H  0.86646888  0.19321060  0.68041831     0.15530
H1197       H  0.98837173  0.29565975  0.68173938     0.15240
N1198       N  0.94091431  0.30259452  0.61009911     0.74340
O1199       O  0.88372292  0.16539085  0.75925422    -0.39120
O1200       O  0.94969062  0.14752960  0.74117626    -0.39060
O1201       O  0.90925846  0.31885155  0.59050104    -0.39760
O1202       O  0.97891601  0.31585392  0.60085709    -0.39830
C1203       C  0.58083472  0.21126424  0.65477639    -0.12110
C1204       C  0.60848947  0.24620014  0.65181250     0.04900
C1205       C  0.60345401  0.28010928  0.68327560    -0.07400
C1206       C  0.56926274  0.27907907  0.71568704    -0.08140
C1207       C  0.54029519  0.24397353  0.71955506    -0.02690
C1208       C  0.54761127  0.20938498  0.68800821     0.04120
N1209       N  0.52028464  0.17269282  0.68697053     0.66630
H1210       H  0.58489460  0.18498019  0.63069874     0.15530
H1211       H  0.56431347  0.30784890  0.73533566     0.15240
N1212       N  0.63104007  0.31700508  0.68120247     0.74340
O1213       O  0.49163156  0.17001301  0.65673395    -0.39120
O1214       O  0.03446197  0.13895030  0.70329296    -0.39060
O1215       O  0.64185547  0.33227443  0.64315369    -0.39760
O1216       O  0.64112504  0.33682783  0.71741090    -0.39830
C1217       C  0.75354791  0.06547944  0.62853310    -0.12110
C1218       C  0.74766359  0.10667801  0.64539658     0.04900
C1219       C  0.74309739  0.11295914  0.69326357    -0.07400
C1220       C  0.74605003  0.07819295  0.72229570    -0.08140
C1221       C  0.75039580  0.03602009  0.70559504    -0.02690
C1222       C  0.75558641  0.03069415  0.65680755     0.04120
N1223       N  0.76606723  0.99156353  0.63382237     0.66630
H1224       H  0.75843983  0.05975041  0.59219198     0.15530
H1225       H  0.74275238  0.08408709  0.75872550     0.15240
N1226       N  0.73373738  0.15379275  0.71322595     0.74340
O1227       O  0.74174454  0.97842573  0.60215560    -0.39120
O1228       O  0.80491541  0.97901771  0.63375403    -0.39060
O1229       O  0.69993472  0.17311576  0.70182871    -0.39760
O1230       O  0.75385347  0.16643819  0.74819830    -0.39830
C1231       C  0.71597002  0.40639245  0.66286692    -0.12110
C1232       C  0.75497254  0.38530438  0.65531505     0.04900
C1233       C  0.79144642  0.39591611  0.68197979    -0.07400
C1234       C  0.78765593  0.42908096  0.71469127    -0.08140
C1235       C  0.75080679  0.45563002  0.71684893    -0.02690
C1236       C  0.71315537  0.44101674  0.69271179     0.04120
N1237       N  0.67213976  0.46208879  0.69539302     0.66630
H1238       H  0.68790393  0.39799412  0.64269997     0.15530
H1239       H  0.81480855  0.43462268  0.73653968     0.15240
N1240       N  0.83350787  0.37701748  0.67346910     0.74340
O1241       O  0.66609931  0.49410376  0.67146315    -0.39120
O1242       O  0.63954713  0.44307471  0.71235671    -0.39060
O1243       O  0.83730833  0.34143239  0.65358522    -0.39760
O1244       O  0.86763020  0.39745704  0.68328578    -0.39830
C1245       C  0.88036536  0.07052596  0.51460799    -0.12110
C1246       C  0.89728415  0.10791927  0.49669732     0.04900
C1247       C  0.94202461  0.10855503  0.48311880    -0.07400
C1248       C  0.96545953  0.07034047  0.48195420    -0.08140
C1249       C  0.95004641  0.03442546  0.50492954    -0.02690
C1250       C  0.90578691  0.03511439  0.52041690     0.04120
N1251       N  0.88492624  0.00087651  0.54315568     0.66630
H1252       H  0.84680838  0.06886328  0.52673078     0.15530
H1253       H  0.99737192  0.06998550  0.46593515     0.15240
N1254       N  0.96591198  0.14705694  0.47538681     0.74340
O1255       O  0.88046796  0.00365783  0.58597563    -0.39120
O1256       O  0.85809803  0.47836428  0.52114650    -0.39060
O1257       O  0.96240426  0.17735886  0.50394075    -0.39760
O1258       O  0.99880399  0.14639646  0.44881094    -0.39830
C1259       C  0.57283374  0.10973237  0.53574376    -0.12110
C1260       C  0.61269953  0.10435047  0.51187508     0.04900
C1261       C  0.62311945  0.06366823  0.49391474    -0.07400
C1262       C  0.59057195  0.03320399  0.49141779    -0.08140
C1263       C  0.55164531  0.03695006  0.51714052    -0.02690
C1264       C  0.54393592  0.07527888  0.54221307     0.04120
N1265       N  0.50768347  0.08002283  0.57376225     0.66630
H1266       H  0.56574665  0.14000342  0.55213711     0.15530
H1267       H  0.59805925  0.00407131  0.47293478     0.15240
N1268       N  0.66707867  0.05059326  0.48349727     0.74340
O1269       O  0.49400926  0.04921786  0.59684494    -0.39120
O1270       O  0.49074770  0.11587155  0.58071228    -0.39060
O1271       O  0.69435789  0.05135148  0.51523277    -0.39760
O1272       O  0.67450387  0.02640187  0.44945667    -0.39830
C1273       C  0.61195459  0.41871660  0.54841257    -0.12110
C1274       C  0.60831784  0.38881891  0.51265403     0.04900
C1275       C  0.57517665  0.39335970  0.48058651    -0.07400
C1276       C  0.54767483  0.42830388  0.48393508    -0.08140
C1277       C  0.54942540  0.45730298  0.52086757    -0.02690
C1278       C  0.58272169  0.45242747  0.55319911     0.04120
N1279       N  0.58990278  0.48358144  0.58847434     0.66630
H1280       H  0.63798360  0.41607053  0.57265322     0.15530
H1281       H  0.52638513  0.43388233  0.45589146     0.15240
N1282       N  0.57074145  0.36459101  0.44258775     0.74340
O1283       O  0.62620398  0.50241006  0.59062398    -0.39120
O1284       O  0.56001670  0.99288576  0.61701135    -0.39060
O1285       O  0.55910466  0.32688201  0.44966336    -0.39760
O1286       O  0.56774011  0.37903826  0.40292617    -0.39830
C1287       C  0.91243963  0.40150895  0.54386397    -0.12110
C1288       C  0.89894345  0.38707185  0.50084815     0.04900
C1289       C  0.91773880  0.40438282  0.46086838    -0.07400
C1290       C  0.94335096  0.44095967  0.46564324    -0.08140
C1291       C  0.95701885  0.45505908  0.50880423    -0.02690
C1292       C  0.94481214  0.43232055  0.54785466     0.04120
N1293       N  0.96277026  0.44172065  0.59170842     0.66630
H1294       H  0.89728260  0.38965139  0.57460663     0.15530
H1295       H  0.95422800  0.45786413  0.43565828     0.15240
N1296       N  0.91164439  0.38567445  0.41603450     0.74340
O1297       O  0.93789705  0.45298175  0.62440687    -0.39120
O1298       O  0.99911908  0.42608190  0.60088748    -0.39060
O1299       O  0.92019781  0.40672502  0.38075579    -0.39760
O1300       O  0.90249701  0.34686021  0.41121493    -0.39830
C1301       C  0.58313141  0.28391886  0.34231496    -0.12110
C1302       C  0.61181631  0.25007215  0.34149998     0.04900
C1303       C  0.61278853  0.22276197  0.30239234    -0.07400
C1304       C  0.58139000  0.22721023  0.26828283    -0.08140
C1305       C  0.54905981  0.25868751  0.27157223    -0.02690
C1306       C  0.55334612  0.28964038  0.30756689     0.04120
N1307       N  0.52630561  0.32627727  0.31079603     0.66630
H1308       H  0.58485742  0.30706100  0.36972347     0.15530
H1309       H  0.58222139  0.20527946  0.23953942     0.15240
N1310       N  0.64465464  0.18994870  0.29687956     0.74340
O1311       O  0.49641026  0.32811016  0.34093259    -0.39120
O1312       O  0.04014108  0.36023463  0.29363299    -0.39060
O1313       O  0.65640357  0.16924788  0.33073655    -0.39760
O1314       O  0.65830274  0.17899485  0.25748694    -0.39830
C1315       C  0.88858074  0.25897952  0.29550591    -0.12110
C1316       C  0.89690239  0.24821036  0.34061540     0.04900
C1317       C  0.93891920  0.23456996  0.35072530    -0.07400
C1318       C  0.97231288  0.23692053  0.31821270    -0.08140
C1319       C  0.96638399  0.25318971  0.27403653    -0.02690
C1320       C  0.92192930  0.25888452  0.26177154     0.04120
N1321       N  0.90878947  0.26083517  0.21545533     0.66630
H1322       H  0.85558681  0.26593932  0.28575617     0.15530
H1323       H  0.00305375  0.22387477  0.32807644     0.15240
N1324       N  0.94755727  0.21445354  0.39264443     0.74340
O1325       O  0.90491994  0.22639875  0.19326376    -0.39120
O1326       O  0.88646346  0.29195585  0.20357784    -0.39060
O1327       O  0.92615078  0.18170622  0.40305161    -0.39760
O1328       O  0.97998800  0.22580333  0.41587296    -0.39830
C1329       C  0.71445653  0.39220077  0.32045509    -0.12110
C1330       C  0.74711136  0.39360956  0.35302398     0.04900
C1331       C  0.77473234  0.42953078  0.35526136    -0.07400
C1332       C  0.77165315  0.46052372  0.32197676    -0.08140
C1333       C  0.74017046  0.45900664  0.28717503    -0.02690
C1334       C  0.70839102  0.42550777  0.29016639     0.04120
N1335       N  0.66750213  0.42603623  0.26749584     0.66630
H1336       H  0.69092181  0.36644516  0.32119903     0.15530
H1337       H  0.79533648  0.48605854  0.32261302     0.15240
N1338       N  0.80670034  0.43504579  0.39021691     0.74340
O1339       O  0.65455548  0.39319847  0.24633462    -0.39120
O1340       O  0.64011739  0.45419755  0.27849244    -0.39060
O1341       O  0.82570443  0.40358576  0.40609583    -0.39760
O1342       O  0.81822429  0.47172777  0.40324291    -0.39830
C1343       C  0.70967414  0.04221547  0.31587071    -0.12110
C1344       C  0.74366381  0.03727407  0.28291241     0.04900
C1345       C  0.77797221  0.06844293  0.28377235    -0.07400
C1346       C  0.77537808  0.10298042  0.31413845    -0.08140
C1347       C  0.74121139  0.10739937  0.34567086    -0.02690
C1348       C  0.70678634  0.07728186  0.34599230     0.04120
N1349       N  0.66780277  0.08228359  0.37421152     0.66630
H1350       H  0.68382878  0.01877864  0.31658612     0.15530
H1351       H  0.80217871  0.12556101  0.31495457     0.15240
N1352       N  0.81767768  0.06505890  0.25771537     0.74340
O1353       O  0.63613951  0.05689239  0.36954454    -0.39120
O1354       O  0.66295734  0.11349277  0.40129069    -0.39060
O1355       O  0.82757895  0.09391880  0.23012163    -0.39760
O1356       O  0.84755514  0.04191338  0.27205906    -0.39830
O1357       O  0.74855760  0.67968261  0.36745877    -0.86330
O1358       O  0.75063575  0.68005238  0.62666385    -0.86500
O1359       O  0.82487717  0.63227063  0.49274900    -0.88170
O1360       O  0.68373708  0.63078142  0.50275404    -0.86920
O1361       O  0.62831457  0.67854331  0.50484309    -0.86510
O1362       O  0.87934919  0.68179209  0.49207759    -0.87880
O1363       O  0.75013785  0.63054143  0.56883352    -0.86360
O1364       O  0.74745936  0.62861911  0.42225081    -0.85950
Zr1365     Zr  0.75327413  0.66507420  0.49504165     2.84310
O1366       O  0.70860334  0.70647685  0.54220691    -1.07920
O1367       O  0.79721497  0.70650840  0.44762168    -1.08650
C1368       C  0.74575848  0.64089847  0.38070070     1.06780
C1369       C  0.74925310  0.64150825  0.61168109     1.06720
C1370       C  0.86560234  0.64324412  0.49294624     1.09540
C1371       C  0.64334388  0.64044197  0.50637396     1.07480
H1372       H  0.81525610  0.68771020  0.55977067     0.33040
O1373       O  0.79752245  0.70584519  0.54177137    -1.28880
H1374       H  0.68987723  0.68874049  0.43196403     0.32710
O1375       O  0.70840985  0.70654806  0.45051875    -1.30550
O1376       O  0.75509469  0.81458786  0.63043291    -0.86330
O1377       O  0.74944325  0.82056846  0.37129854    -0.87820
O1378       O  0.87643282  0.74543421  0.56865925    -0.86400
O1379       O  0.62901793  0.74602285  0.57377956    -0.86450
O1380       O  0.63048670  0.74861561  0.42088858    -0.86160
O1381       O  0.87380739  0.75042350  0.41852784    -0.85970
O1382       O  0.82483572  0.86759735  0.50040980    -0.86340
O1383       O  0.68196321  0.86809191  0.50759217    -0.85800
O1384       O  0.87753933  0.81623295  0.49767126    -0.86870
O1385       O  0.62845076  0.81696046  0.50370260    -0.86020
O1386       O  0.82364846  0.74575299  0.62529129    -0.86420
O1387       O  0.82193114  0.74938612  0.36343073    -0.86150
O1388       O  0.68442002  0.74871197  0.36533059    -0.85800
O1389       O  0.68218339  0.74757047  0.62816307    -0.86200
O1390       O  0.75509155  0.86680139  0.57705453    -0.86500
O1391       O  0.74902304  0.87066082  0.42929905    -0.87840
Zr1392     Zr  0.75291097  0.74776686  0.58927621     2.83100
Zr1393     Zr  0.75258882  0.74990124  0.40478586     2.83500
Zr1394     Zr  0.84072021  0.74873587  0.49493514     2.84090
Zr1395     Zr  0.66368313  0.74820266  0.49798478     2.83360
Zr1396     Zr  0.75286377  0.83374348  0.50098486     2.84220
O1397       O  0.70856367  0.79189721  0.45343071    -1.08410
O1398       O  0.79747847  0.79109102  0.54416248    -1.07910
C1399       C  0.75579986  0.85347043  0.61844549     1.06750
C1400       C  0.74865065  0.85930213  0.38672130     1.09370
C1401       C  0.86368590  0.74530933  0.61101277     1.06920
C1402       C  0.64216642  0.74648610  0.61548793     1.07280
C1403       C  0.64422831  0.74849398  0.37847856     1.06870
C1404       C  0.86182837  0.74946889  0.37641459     1.06420
C1405       C  0.86477648  0.85487455  0.49922390     1.06840
C1406       C  0.64171359  0.85572537  0.50737198     1.06360
H1407       H  0.81470133  0.81048910  0.43277564     0.33030
O1408       O  0.79678871  0.79234099  0.45160068    -1.29510
H1409       H  0.69048208  0.80752464  0.56593309     0.33060
O1410       O  0.70827906  0.79022717  0.54559258    -1.30890
C1411       C  0.97922816  0.99663546  0.51221522     0.00720
C1412       C  0.52366499  0.99778193  0.51888023     0.00720
O1413       O  0.99777528  0.93092514  0.86720318    -0.86330
O1414       O  0.99943863  0.93715928  0.12838107    -0.86500
O1415       O  0.56909333  0.88182513  0.98663440    -0.88170
O1416       O  0.92801491  0.87992403  0.01043867    -0.86920
O1417       O  0.87418703  0.92950288  0.00936176    -0.86510
O1418       O  0.62163639  0.93342154  0.98247489    -0.87880
O1419       O  0.00582750  0.88436293  0.07378817    -0.86360
O1420       O  0.99940052  0.88026774  0.92236160    -0.85950
Zr1421     Zr  0.99814879  0.91583388  0.99749068     2.84310
O1422       O  0.95320831  0.95972140  0.04234307    -1.07920
O1423       O  0.54120711  0.95990223  0.95161197    -1.08650
C1424       C  0.99954785  0.89219925  0.88035824     1.06780
C1425       C  0.00428009  0.89828620  0.11586126     1.06720
C1426       C  0.60913477  0.89399992  0.98060227     1.09700
C1427       C  0.88758728  0.89106213  0.01470679     1.07480
H1428       H  0.56056075  0.94300312  0.05943186     0.33040
O1429       O  0.54215252  0.96059246  0.04159211    -1.28880
H1430       H  0.93490922  0.93808945  0.93245427     0.32710
O1431       O  0.95275859  0.95646348  0.95123206    -1.30550
O1432       O  0.99797745  0.57094412  0.12947679    -0.86330
O1433       O  0.00000845  0.57076972  0.87065935    -0.87820
O1434       O  0.62184890  0.99740748  0.06872546    -0.86400
O1435       O  0.87249851  0.00029971  0.07260515    -0.86450
O1436       O  0.87473226  0.50034778  0.92111216    -0.86160
O1437       O  0.62041425  0.50614226  0.91814484    -0.85970
O1438       O  0.56302288  0.62500808  0.01162282    -0.86340
O1439       O  0.92631084  0.62276781  0.98872045    -0.85800
O1440       O  0.61781106  0.57639080  0.01057794    -0.86870
O1441       O  0.87311976  0.57156331  0.98911209    -0.86020
O1442       O  0.56766131  0.99958295  0.12407448    -0.86420
O1443       O  0.56674138  0.49503173  0.86572665    -0.86150
O1444       O  0.92879583  0.50397341  0.86631167    -0.85800
O1445       O  0.92510836  0.99806337  0.12727991    -0.86200
O1446       O  0.99107987  0.61930312  0.07358065    -0.86500
O1447       O  0.00070816  0.62212485  0.92732107    -0.87840
Zr1448     Zr  0.99643523  0.00296656  0.08873190     2.83100
Zr1449     Zr  0.99740031  0.50043799  0.90562703     2.83500
Zr1450     Zr  0.58670571  0.50377294  0.99522828     2.84090
Zr1451     Zr  0.90756376  0.50033673  0.99729465     2.83360
Zr1452     Zr  0.99549123  0.58623973  0.99867032     2.84220
O1453       O  0.95270243  0.54262934  0.95235088    -1.08410
O1454       O  0.54073549  0.54529195  0.04260012    -1.07910
C1455       C  0.99430826  0.60918526  0.11577050     1.06750
C1456       C  0.00125765  0.60973628  0.88527480     1.09370
C1457       C  0.60787331  0.99645617  0.11061052     1.06920
C1458       C  0.88504633  0.99858684  0.11444073     1.07280
C1459       C  0.88839806  0.50389252  0.87912365     1.06870
C1460       C  0.60669729  0.50080073  0.87671650     1.06420
C1461       C  0.60329780  0.61489455  0.01635308     1.06840
C1462       C  0.88608784  0.61084290  0.98536446     1.06360
H1463       H  0.55987292  0.56330240  0.93212149     0.33030
O1464       O  0.54168792  0.54523737  0.95071979    -1.29510
H1465       H  0.93163414  0.56201093  0.06385583     0.33060
O1466       O  0.95028268  0.54441151  0.04466661    -1.30890
C1467       C  0.76825201  0.75136576  0.00203872     0.00720
C1468       C  0.72250009  0.75357362  0.00178848     0.00720
C1469       C  0.00753935  0.75813154  0.24098250    -0.02330
C1470       C  0.74169612  0.99619171  0.25199236    -0.02330
C1471       C  0.99834664  0.74573142  0.75201030    -0.02330
C1472       C  0.75112319  0.99981934  0.74163953    -0.02330
C1473       C  0.64166644  0.02775327  0.17778821    -0.12110
C1474       C  0.64032412  0.99390372  0.14673493     0.04900
C1475       C  0.66883587  0.45949250  0.15185703    -0.07400
C1476       C  0.69896341  0.46136815  0.18743643    -0.08140
C1477       C  0.70162080  0.99590424  0.21911250    -0.02690
C1478       C  0.67204200  0.03021419  0.21255335     0.04120
N1479       N  0.67389684  0.06992536  0.23669019     0.66630
H1480       H  0.61999615  0.05427415  0.17343439     0.15530
H1481       H  0.72162365  0.43549636  0.19025673     0.15240
N1482       N  0.66699759  0.42181191  0.12320444     0.74340
O1483       O  0.70126054  0.09741478  0.22384605    -0.39120
O1484       O  0.64094142  0.08182217  0.25986288    -0.39060
O1485       O  0.65610533  0.42336661  0.08201120    -0.39760
O1486       O  0.67908438  0.88679423  0.13838647    -0.39830
C1487       C  0.78149036  0.52278141  0.18162990    -0.12110
C1488       C  0.78178771  0.99386704  0.21792394     0.04900
C1489       C  0.81765124  0.96507408  0.21789132    -0.07400
C1490       C  0.85204177  0.96961805  0.18588558    -0.08140
C1491       C  0.85042047  0.99810286  0.15046087    -0.02690
C1492       C  0.81395347  0.52387347  0.14804291     0.04120
N1493       N  0.80797530  0.55004441  0.11010388     0.66630
H1494       H  0.75539831  0.54530917  0.17899301     0.15530
H1495       H  0.87908828  0.94875558  0.18658705     0.15240
N1496       N  0.82007973  0.93004458  0.24769951     0.74340
O1497       O  0.77819221  0.54022466  0.08268566    -0.39120
O1498       O  0.83707191  0.57662464  0.09919143    -0.39060
O1499       O  0.79724223  0.89747978  0.23957976    -0.39760
O1500       O  0.85243875  0.42713381  0.27339617    -0.39830
C1501       C  0.54525274  0.84143676  0.15333182    -0.12110
C1502       C  0.00891027  0.86774166  0.15300411     0.04900
C1503       C  0.97802536  0.86489515  0.18908391    -0.07400
C1504       C  0.97964036  0.83150318  0.21943294    -0.08140
C1505       C  0.01158992  0.80021689  0.21498717    -0.02690
C1506       C  0.54781747  0.80880711  0.18493807     0.04120
N1507       N  0.58616449  0.78334710  0.18390325     0.66630
H1508       H  0.57122028  0.84540668  0.12814880     0.15530
H1509       H  0.95544929  0.83062797  0.24654788     0.15240
N1510       N  0.94382350  0.89476193  0.19504915     0.74340
O1511       O  0.08871230  0.75163355  0.15713793    -0.39120
O1512       O  0.62052123  0.79809378  0.20128598    -0.39060
O1513       O  0.90550402  0.88111206  0.20144413    -0.39760
O1514       O  0.45329149  0.93204284  0.20781701    -0.39830
C1515       C  0.00453544  0.67852255  0.22424731    -0.12110
C1516       C  0.00389278  0.71984195  0.20625781     0.04900
C1517       C  0.49533697  0.72251505  0.15815464    -0.07400
C1518       C  0.49167516  0.68583797  0.13157040    -0.08140
C1519       C  0.99480806  0.64532374  0.14931524    -0.02690
C1520       C  0.00021110  0.64168698  0.19682914     0.04120
N1521       N  0.00050713  0.60133954  0.21827261     0.66630
H1522       H  0.00833663  0.67465643  0.26056070     0.15530
H1523       H  0.48572859  0.68985014  0.09558098     0.15240
N1524       N  0.48890315  0.76093632  0.13391103     0.74340
O1525       O  0.52931124  0.59353461  0.24703003    -0.39120
O1526       O  0.96759317  0.57729377  0.21556102    -0.39060
O1527       O  0.51236116  0.76762875  0.09890520    -0.39760
O1528       O  0.95260892  0.77916991  0.13689133    -0.39830
C1529       C  0.62687093  0.81747431  0.96239486    -0.12110
C1530       C  0.64216442  0.85907331  0.97121540     0.04900
C1531       C  0.68807344  0.86493373  0.96736928    -0.07400
C1532       C  0.71576518  0.82907752  0.96650287    -0.08140
C1533       C  0.69890088  0.78816468  0.97432640    -0.02690
C1534       C  0.65557649  0.78265966  0.95916389     0.04120
N1535       N  0.64059943  0.74246951  0.94094719     0.66630
H1536       H  0.59243269  0.81190663  0.95754577     0.15530
H1537       H  0.75032887  0.83383876  0.96177521     0.15240
N1538       N  0.70733178  0.90609155  0.96298259     0.74340
O1539       O  0.60059094  0.73589041  0.93418949    -0.39120
O1540       O  0.66767761  0.71483416  0.92747417    -0.39060
O1541       O  0.70379968  0.93301617  0.99521090    -0.39760
O1542       O  0.73503100  0.91239348  0.93143873    -0.39830
C1543       C  0.78107119  0.82718727  0.03751371    -0.12110
C1544       C  0.79612715  0.78615377  0.02637704     0.04900
C1545       C  0.84070074  0.78019776  0.03647313    -0.07400
C1546       C  0.86994337  0.81478375  0.03234467    -0.08140
C1547       C  0.85487186  0.85632062  0.02607478    -0.02690
C1548       C  0.80956482  0.86270619  0.03474441     0.04120
N1549       N  0.79188118  0.90416267  0.04206144     0.66630
H1550       H  0.74684684  0.83240188  0.04450277     0.15530
H1551       H  0.90455327  0.80910653  0.03441988     0.15240
N1552       N  0.85607228  0.74026379  0.05247336     0.74340
O1553       O  0.79148829  0.92988523  0.00974517    -0.39120
O1554       O  0.76930680  0.91202998  0.07765027    -0.39060
O1555       O  0.89637076  0.73274657  0.05347239    -0.39760
O1556       O  0.82978195  0.71450869  0.07082280    -0.39830
C1557       C  0.86641856  0.68520229  0.95956206    -0.12110
C1558       C  0.85304203  0.64527555  0.97601374     0.04900
C1559       C  0.80784499  0.63969418  0.98312700    -0.07400
C1560       C  0.77880796  0.67309296  0.97593454    -0.08140
C1561       C  0.79362242  0.71506261  0.97636629    -0.02690
C1562       C  0.83700068  0.71993513  0.95868933     0.04120
N1563       N  0.85148487  0.75958902  0.94028513     0.66630
H1564       H  0.90009455  0.68996761  0.94919579     0.15530
H1565       H  0.74468508  0.66592602  0.97507335     0.15240
N1566       N  0.79228238  0.60645447  0.01079928     0.74340
O1567       O  0.89154984  0.76869534  0.93807935    -0.39120
O1568       O  0.82437787  0.78508594  0.92461704    -0.39060
O1569       O  0.78113662  0.61553158  0.05133781    -0.39760
O1570       O  0.78434214  0.57019340  0.99424611    -0.39830
C1571       C  0.61852745  0.69311936  0.03137971    -0.12110
C1572       C  0.63417137  0.65117116  0.02850053     0.04900
C1573       C  0.67780489  0.64603300  0.04218454    -0.07400
C1574       C  0.70632628  0.68191578  0.04402070    -0.08140
C1575       C  0.69273533  0.72130941  0.02808044    -0.02690
C1576       C  0.64757300  0.72794446  0.03623602     0.04120
N1577       N  0.63156441  0.76861859  0.05162270     0.66630
H1578       H  0.58384887  0.69889113  0.03080824     0.15530
H1579       H  0.73950292  0.67860424  0.05442552     0.15240
N1580       N  0.69208979  0.60614659  0.05819933     0.74340
O1581       O  0.59136906  0.77653964  0.05118356    -0.39120
O1582       O  0.65706897  0.79540776  0.06963548    -0.39060
O1583       O  0.69958706  0.57585422  0.03050844    -0.39760
O1584       O  0.69948528  0.60185627  0.10007682    -0.39830
C1585       C  0.86708305  0.50249750  0.79617322    -0.12110
C1586       C  0.85552209  0.50886179  0.84263054     0.04900
C1587       C  0.81356975  0.02432176  0.85255680    -0.07400
C1588       C  0.78307379  0.02662117  0.81824600    -0.08140
C1589       C  0.79107314  0.51005446  0.77360977    -0.02690
C1590       C  0.83600390  0.50596146  0.76141228     0.04120
N1591       N  0.85115561  0.50765818  0.71492850     0.66630
H1592       H  0.90063139  0.49594170  0.78660436     0.15530
H1593       H  0.75179065  0.03970369  0.82820637     0.15240
N1594       N  0.80081193  0.03856199  0.89719639     0.74340
O1595       O  0.84444371  0.54077114  0.69291700    -0.39120
O1596       O  0.88158482  0.98361129  0.70143539    -0.39060
O1597       O  0.79206419  0.57722045  0.90324045    -0.39760
O1598       O  0.78522421  0.01193298  0.92467740    -0.39830
C1599       C  0.67423364  0.97168718  0.84337271    -0.12110
C1600       C  0.63959966  0.49967201  0.83903570     0.04900
C1601       C  0.63704129  0.52332936  0.79821742    -0.07400
C1602       C  0.67362432  0.52453189  0.76865531    -0.08140
C1603       C  0.70958296  0.49771394  0.77364065    -0.02690
C1604       C  0.70702316  0.96817596  0.80983277     0.04120
N1605       N  0.73790753  0.93475822  0.81351581     0.66630
H1606       H  0.67485458  0.95086760  0.87230106     0.15530
H1607       H  0.67226793  0.54503104  0.73981685     0.15240
N1608       N  0.59816390  0.54460874  0.78408831     0.74340
O1609       O  0.76699923  0.93748079  0.84327199    -0.39120
O1610       O  0.72892167  0.89888325  0.79631050    -0.39060
O1611       O  0.56806332  0.55445725  0.81188637    -0.39760
O1612       O  0.59323167  0.05290153  0.74251121    -0.39830
C1613       C  0.96599493  0.66970150  0.85037620    -0.12110
C1614       C  0.00232856  0.64361762  0.85186620     0.04900
C1615       C  0.54005863  0.65424673  0.82630982    -0.07400
C1616       C  0.53717925  0.68561355  0.79337709    -0.08140
C1617       C  0.99908794  0.71002086  0.78808499    -0.02690
C1618       C  0.96525229  0.70442362  0.82168334     0.04120
N1619       N  0.93184470  0.73501793  0.83030117     0.66630
H1620       H  0.93877877  0.66449461  0.87378740     0.15530
H1621       H  0.56659151  0.69279072  0.77431188     0.15240
N1622       N  0.58214454  0.63684322  0.83590807     0.74340
O1623       O  0.89253300  0.72373546  0.82681705    -0.39120
O1624       O  0.94038398  0.76552072  0.85718209    -0.39060
O1625       O  0.59064505  0.62449076  0.87543806    -0.39760
O1626       O  0.61274915  0.63859161  0.80654927    -0.39830
C1627       C  0.53266294  0.79388556  0.81231054    -0.12110
C1628       C  0.99772939  0.78786273  0.78180825     0.04900
C1629       C  0.96465891  0.81970508  0.78324438    -0.07400
C1630       C  0.96724898  0.85393465  0.81450404    -0.08140
C1631       C  0.00183709  0.85857770  0.84447854    -0.02690
C1632       C  0.53656314  0.82964931  0.84129609     0.04120
N1633       N  0.57701162  0.83726646  0.86452972     0.66630
H1634       H  0.55864450  0.77094998  0.81166041     0.15530
H1635       H  0.94080371  0.87647406  0.81652044     0.15240
N1636       N  0.92662293  0.81764020  0.75604691     0.74340
O1637       O  0.60583700  0.80899297  0.86420227    -0.39120
O1638       O  0.58756334  0.87423873  0.87742363    -0.39060
O1639       O  0.89413705  0.79619071  0.76929331    -0.39760
O1640       O  0.92113935  0.84599943  0.72715361    -0.39830
C1641       C  0.89333728  0.71566713  0.68132608    -0.12110
C1642       C  0.89743321  0.74492652  0.64633474     0.04900
C1643       C  0.93361549  0.77257151  0.64570325    -0.07400
C1644       C  0.96277666  0.77191252  0.68155789    -0.08140
C1645       C  0.95995889  0.74258584  0.71748715    -0.02690
C1646       C  0.92481595  0.71214047  0.71533997     0.04120
N1647       N  0.92087283  0.67569622  0.74369961     0.66630
H1648       H  0.86646873  0.69320963  0.68042080     0.15530
H1649       H  0.98837255  0.79565771  0.68173931     0.15240
N1650       N  0.94091676  0.80258991  0.61009774     0.74340
O1651       O  0.88372403  0.66538937  0.75925607    -0.39120
O1652       O  0.94969169  0.64752855  0.74117739    -0.39060
O1653       O  0.90926193  0.81884426  0.59049549    -0.39760
O1654       O  0.97891873  0.81584921  0.60085684    -0.39830
C1655       C  0.58083518  0.71126384  0.65477650    -0.12110
C1656       C  0.60848991  0.74619978  0.65181267     0.04900
C1657       C  0.60345468  0.78010863  0.68327616    -0.07400
C1658       C  0.56926357  0.77907827  0.71568774    -0.08140
C1659       C  0.54029600  0.74397274  0.71955570    -0.02690
C1660       C  0.54761194  0.70938435  0.68800859     0.04120
N1661       N  0.52028526  0.67269222  0.68697084     0.66630
H1662       H  0.58489495  0.68497994  0.63069865     0.15530
H1663       H  0.56431446  0.80784802  0.73533650     0.15240
N1664       N  0.63104082  0.81700437  0.68120328     0.74340
O1665       O  0.49163177  0.67001275  0.65673468    -0.39120
O1666       O  0.03446270  0.63894953  0.70329274    -0.39060
O1667       O  0.64185588  0.83227412  0.64315460    -0.39760
O1668       O  0.64112622  0.83682664  0.71741187    -0.39830
C1669       C  0.75354980  0.56547961  0.62853343    -0.12110
C1670       C  0.74766353  0.60667794  0.64539686     0.04900
C1671       C  0.74309565  0.61295879  0.69326376    -0.07400
C1672       C  0.74604827  0.57819256  0.72229589    -0.08140
C1673       C  0.75039518  0.53601984  0.70559517    -0.02690
C1674       C  0.75558811  0.53069423  0.65680780     0.04120
N1675       N  0.76607078  0.49156392  0.63382274     0.66630
H1676       H  0.75844331  0.55975089  0.59219246     0.15530
H1677       H  0.74274941  0.58408643  0.75872565     0.15240
N1678       N  0.73373364  0.65379205  0.71322594     0.74340
O1679       O  0.74174904  0.47842550  0.60215544    -0.39120
O1680       O  0.80491954  0.47901964  0.63375463    -0.39060
O1681       O  0.69993131  0.67311450  0.70182667    -0.39760
O1682       O  0.75384744  0.66643767  0.74819971    -0.39830
C1683       C  0.71597056  0.90639174  0.66286948    -0.12110
C1684       C  0.75497355  0.88530500  0.65531548     0.04900
C1685       C  0.79144870  0.89591791  0.68197807    -0.07400
C1686       C  0.78765756  0.92908137  0.71469127    -0.08140
C1687       C  0.75080814  0.95563006  0.71684989    -0.02690
C1688       C  0.71315621  0.94101608  0.69271421     0.04120
N1689       N  0.67214049  0.96208783  0.69539624     0.66630
H1690       H  0.68790387  0.89799281  0.64270372     0.15530
H1691       H  0.81481021  0.93462315  0.73653952     0.15240
N1692       N  0.83351157  0.87702266  0.67346347     0.74340
O1693       O  0.66609892  0.99410177  0.67146513    -0.39120
O1694       O  0.63954862  0.94307409  0.71236198    -0.39060
O1695       O  0.83731519  0.84144743  0.65355897    -0.39760
O1696       O  0.86763260  0.89745920  0.68329214    -0.39830
C1697       C  0.88036519  0.57052613  0.51461766    -0.12110
C1698       C  0.89728314  0.60791678  0.49669983     0.04900
C1699       C  0.94202300  0.60855034  0.48311896    -0.07400
C1700       C  0.96545738  0.57033542  0.48195866    -0.08140
C1701       C  0.95004608  0.53442434  0.50494272    -0.02690
C1702       C  0.90578801  0.53511640  0.52043360     0.04120
N1703       N  0.88493236  0.50088588  0.54318911     0.66630
H1704       H  0.84680912  0.56886584  0.52674378     0.15530
H1705       H  0.99736830  0.56997798  0.46593645     0.15240
N1706       N  0.96591075  0.64705093  0.47538131     0.74340
O1707       O  0.88050022  0.50367205  0.58601132    -0.39120
O1708       O  0.85810801  0.97835316  0.52109358    -0.39060
O1709       O  0.96240586  0.67735512  0.50393281    -0.39760
O1710       O  0.99880099  0.64638745  0.44880305    -0.39830
C1711       C  0.57283322  0.60973467  0.53574463    -0.12110
C1712       C  0.61269836  0.60435262  0.51187476     0.04900
C1713       C  0.62311709  0.56367070  0.49391286    -0.07400
C1714       C  0.59056870  0.53320737  0.49141554    -0.08140
C1715       C  0.55164427  0.53695225  0.51714244    -0.02690
C1716       C  0.54393578  0.57528113  0.54221522     0.04120
N1717       N  0.50768477  0.58002511  0.57376615     0.66630
H1718       H  0.56574679  0.64000560  0.55213862     0.15530
H1719       H  0.59805471  0.50407521  0.47293094     0.15240
N1720       N  0.66707612  0.55059444  0.48349607     0.74340
O1721       O  0.49401427  0.54922125  0.59685286    -0.39120
O1722       O  0.49074621  0.61587301  0.58071299    -0.39060
O1723       O  0.69435522  0.55135307  0.51523170    -0.39760
O1724       O  0.67450087  0.52640150  0.44945665    -0.39830
C1725       C  0.61194605  0.91871368  0.54841691    -0.12110
C1726       C  0.60831708  0.88881950  0.51265377     0.04900
C1727       C  0.57517917  0.89336071  0.48058238    -0.07400
C1728       C  0.54767567  0.92830377  0.48392916    -0.08140
C1729       C  0.54942057  0.95730051  0.52086408    -0.02690
C1730       C  0.58270898  0.95242149  0.55320278     0.04120
N1731       N  0.58987561  0.98356856  0.58848774     0.66630
H1732       H  0.63797057  0.91606621  0.57266258     0.15530
H1733       H  0.52638783  0.93388262  0.45588369     0.15240
N1734       N  0.57074769  0.86459232  0.44258301     0.74340
O1735       O  0.62616909  0.00241041  0.59064611    -0.39120
O1736       O  0.56005123  0.49291576  0.61700000    -0.39060
O1737       O  0.55910949  0.82688353  0.44965764    -0.39760
O1738       O  0.56774902  0.87903994  0.40292132    -0.39830
C1739       C  0.91245864  0.90150533  0.54386072    -0.12110
C1740       C  0.89894988  0.88706939  0.50084793     0.04900
C1741       C  0.91773645  0.90438083  0.46086341    -0.07400
C1742       C  0.94334591  0.94096023  0.46563145    -0.08140
C1743       C  0.95701990  0.95506129  0.50878906    -0.02690
C1744       C  0.94482907  0.93231975  0.54784072     0.04120
N1745       N  0.96281227  0.94171222  0.59168367     0.66630
H1746       H  0.89731305  0.88964751  0.57460890     0.15530
H1747       H  0.95421685  0.95786461  0.43564421     0.15240
N1748       N  0.91163793  0.88566913  0.41603175     0.74340
O1749       O  0.93797649  0.95309835  0.62436355    -0.39120
O1750       O  0.99910720  0.92597005  0.60088680    -0.39060
O1751       O  0.92018785  0.90671718  0.38075040    -0.39760
O1752       O  0.90249222  0.84685416  0.41121636    -0.39830
C1753       C  0.58313324  0.78391934  0.34231421    -0.12110
C1754       C  0.61181782  0.75007246  0.34149967     0.04900
C1755       C  0.61278964  0.72276187  0.30239236    -0.07400
C1756       C  0.58139087  0.72720994  0.26828296    -0.08140
C1757       C  0.54906083  0.75868739  0.27157222    -0.02690
C1758       C  0.55334755  0.78964054  0.30756651     0.04120
N1759       N  0.52630714  0.82627751  0.31079563     0.66630
H1760       H  0.58485991  0.80706191  0.36972204     0.15530
H1761       H  0.58222198  0.70527888  0.23953980     0.15240
N1762       N  0.64465563  0.68994850  0.29687969     0.74340
O1763       O  0.49641186  0.82811051  0.34093227    -0.39120
O1764       O  0.04014274  0.86023482  0.29363257    -0.39060
O1765       O  0.65640478  0.66924802  0.33073682    -0.39760
O1766       O  0.65830349  0.67899432  0.25748709    -0.39830
C1767       C  0.88858179  0.75898013  0.29550677    -0.12110
C1768       C  0.89690349  0.74821084  0.34061622     0.04900
C1769       C  0.93892027  0.73457018  0.35072588    -0.07400
C1770       C  0.97231395  0.73692088  0.31821323    -0.08140
C1771       C  0.96638495  0.75318996  0.27403703    -0.02690
C1772       C  0.92193022  0.75888484  0.26177223     0.04120
N1773       N  0.90879017  0.76083519  0.21545607     0.66630
H1774       H  0.85558784  0.76594003  0.28575716     0.15530
H1775       H  0.00305483  0.72387501  0.32807680     0.15240
N1776       N  0.94755801  0.71445266  0.39264446     0.74340
O1777       O  0.90492069  0.72639864  0.19326472    -0.39120
O1778       O  0.88646393  0.79195568  0.20357850    -0.39060
O1779       O  0.92614993  0.68170622  0.40305133    -0.39760
O1780       O  0.97998993  0.72580015  0.41587239    -0.39830
C1781       C  0.71445729  0.89220117  0.32045571    -0.12110
C1782       C  0.74711228  0.89360997  0.35302451     0.04900
C1783       C  0.77473393  0.92953084  0.35526100    -0.07400
C1784       C  0.77165534  0.96052292  0.32197540    -0.08140
C1785       C  0.74017201  0.95900619  0.28717435    -0.02690
C1786       C  0.70839213  0.92550783  0.29016642     0.04120
N1787       N  0.66750340  0.92603633  0.26749559     0.66630
H1788       H  0.69092226  0.86644585  0.32120009     0.15530
H1789       H  0.79533916  0.98605726  0.32261088     0.15240
N1790       N  0.80670153  0.93504686  0.39021691     0.74340
O1791       O  0.65455675  0.89319850  0.24633450    -0.39120
O1792       O  0.64011872  0.95419781  0.27849179    -0.39060
O1793       O  0.82570200  0.90358710  0.40610090    -0.39760
O1794       O  0.81822790  0.97172917  0.40323935    -0.39830
C1795       C  0.70967335  0.54221592  0.31587157    -0.12110
C1796       C  0.74366226  0.53727485  0.28291230     0.04900
C1797       C  0.77796971  0.56844480  0.28377059    -0.07400
C1798       C  0.77537624  0.60298187  0.31413725    -0.08140
C1799       C  0.74121066  0.60740010  0.34567100    -0.02690
C1800       C  0.70678579  0.57728241  0.34599310     0.04120
N1801       N  0.66780248  0.58228424  0.37421269     0.66630
H1802       H  0.68382829  0.51877878  0.31658780     0.15530
H1803       H  0.80217639  0.62556306  0.31495221     0.15240
N1804       N  0.81767325  0.56506320  0.25771008     0.74340
O1805       O  0.63613908  0.55689318  0.36954587    -0.39120
O1806       O  0.66295708  0.61349380  0.40129135    -0.39060
O1807       O  0.82756934  0.59392300  0.23011434    -0.39760
O1808       O  0.84755435  0.54192130  0.27205234    -0.39830
loop_ 
_geom_bond_atom_site_label_1 
_geom_bond_atom_site_label_2 
_geom_bond_distance 
_geom_bond_site_symmetry_2 
_ccdc_geom_bond_type 
O1          Zr37   2.457       .  S
O1           C12   1.295       .  A
O2          Zr36   2.425       .  S
O2           C13   1.287       .  A
O3           Zr9   2.438       .  S
O3           C14   1.295       .  A
O4           Zr9   2.396       .  S
O4           C15   1.282       .  A
O5          Zr39   2.458       .  S
O5           C15   1.295       .  A
O6          Zr38   2.434       .  S
O6           C14   1.287       .  A
O7           Zr9   2.442       .  S
O7           C13   1.295       .  A
O8           Zr9   2.411       .  S
O8           C12   1.287       .  A
Zr9          O10   2.320       .  S
Zr9          O11   2.333       .  S
Zr9          O19   2.343       .  S
Zr9          O17   2.313       .  S
O10         Zr36   2.329       .  S
O10         Zr39   2.343       .  S
O11         Zr37   2.346       .  S
O11         Zr38   2.335       .  S
C12         C443   1.467       .  S
C13         C314   1.494       .  S
C14         C342   1.494       .  S
C15         C356   1.483       .  S
H16          O17   0.965       .  S
O17         Zr36   2.334       .  S
O17         Zr38   2.337       .  S
H18          O19   0.964       .  S
O19         Zr37   2.343       .  S
O19         Zr39   2.331       .  S
O20         Zr36   2.411       .  S
O20          C43   1.285       .  A
O21         Zr37   2.462       .  S
O21          C44   1.296       .  A
O22         Zr38   2.445       .  S
O22          C45   1.294       .  A
O23         Zr39   2.446       .  S
O23          C46   1.294       .  A
O24         Zr39   2.496       .  S
O24          C47   1.304       .  A
O25         Zr38   2.442       .  S
O25          C48   1.294       .  A
O26         Zr40   2.448       .  S
O26          C49   1.294       .  A
O27         Zr40   2.443       .  S
O27          C50   1.293       .  A
O28         Zr38   2.407       .  S
O28          C49   1.286       .  A
O29         Zr39   2.437       .  S
O29          C50   1.291       .  A
O30         Zr36   2.435       .  S
O30          C45   1.291       .  A
O31         Zr37   2.430       .  S
O31          C48   1.290       .  A
O32         Zr37   2.410       .  S
O32          C47   1.286       .  A
O33         Zr36   2.433       .  S
O33          C46   1.291       .  A
O34         Zr40   2.443       .  S
O34          C43   1.293       .  A
O35         Zr40   2.429       .  S
O35          C44   1.291       .  A
Zr36         O42   2.339       .  S
Zr36         O54   2.343       .  S
Zr37         O41   2.344       .  S
Zr37         O52   2.342       .  S
Zr38         O42   2.347       .  S
Zr38         O52   2.346       .  S
Zr39         O41   2.343       .  S
Zr39         O54   2.356       .  S
Zr40         O41   2.347       .  S
Zr40         O42   2.337       .  S
Zr40         O54   2.335       .  S
Zr40         O52   2.345       .  S
C43         C328   1.461       .  S
C44         C426   1.484       .  S
C45         C286   1.479       .  S
C46         C300   1.470       .  S
C47         C398   1.487       .  S
C48         C412   1.489       .  S
C49         C384   1.457       .  S
C50         C370   1.475       .  S
H51          O52   0.966       .  S
H53          O54   0.965       .  S
C55         C387   1.478       .  S
C55         C797   1.520       .  S
C55         C960   1.382       .  D
C56         C373   1.513       .  S
C56         C811   1.503       .  S
C56         C959   1.382   1_455  D
O57        Zr545   2.448       .  S
O57          C68   1.293       .  A
O58         Zr92   2.407       .  S
O58          C69   1.284       .  A
O59        Zr969   2.450   1_455  S
O59          C70   1.295       .  A
O60         Zr65   2.453   1_554  S
O60          C71   1.296       .  A
O61        Zr547   2.484   1_554  S
O61          C71   1.300       .  A
O62        Zr546   2.495       .  S
O62          C70   1.301       .  A
O63         Zr65   2.482   1_554  S
O63          C69   1.300       .  A
O64         Zr65   2.450       .  S
O64          C68   1.294       .  A
Zr65        O963   2.450       .  S
Zr65         O66   2.332   1_556  S
Zr65         O75   2.367       .  S
Zr65        O971   2.340       .  S
Zr65        O977   2.336   1_556  S
O66         Zr92   2.332       .  S
O66        Zr547   2.351   1_554  S
O67        Zr969   2.340   1_455  S
O67       Zr1449   2.332   1_455  S
O67        Zr546   2.339       .  S
C68         C275   1.480       .  S
C69         C146   1.480       .  S
C70         C174   1.523       .  S
C71         C191   1.520       .  S
H72          O73   0.965       .  S
O73        Zr969   2.336   1_454  S
O73        Zr996   2.356   1_455  S
O73        Zr546   2.357   1_554  S
H74          O75   0.966       .  S
O75        Zr545   2.361       .  S
O75        Zr547   2.356       .  S
O76        Zr544   2.437       .  S
O76          C99   1.288       .  A
O77         Zr93   2.468       .  S
O77         C100   1.296       .  A
O78        Zr546   2.440   1_554  S
O78         C101   1.293       .  A
O79        Zr547   2.436   1_554  S
O79         C102   1.294       .  A
O80         Zr95   2.466       .  S
O80         C103   1.299       .  A
O81         Zr94   2.468       .  S
O81         C104   1.299       .  A
O82       Zr1000   2.432   1_454  S
O82         C105   1.291       .  A
O83         Zr96   2.451       .  S
O83         C106   1.294       .  A
O84         Zr94   2.514   1_554  S
O84         C105   1.306       .  A
O85         Zr95   2.513       .  S
O85         C106   1.307       .  A
O86        Zr996   2.442   1_455  S
O86         C101   1.293       .  A
O87        Zr997   2.415   1_465  S
O87         C104   1.285   1_565  A
O88         Zr93   2.425       .  S
O88         C103   1.289       .  A
O89         Zr92   2.450       .  S
O89         C102   1.294       .  A
O90         Zr96   2.412   1_554  S
O90          C99   1.289       .  A
O91         Zr96   2.401       .  S
O91         C100   1.284       .  A
Zr92        O528   2.437       .  S
Zr92        O990   2.442       .  S
Zr92        O977   2.356       .  S
Zr92       O1454   2.333       .  S
Zr92        O562   2.359       .  S
Zr93        O509   2.448   1_545  S
Zr93        O991   2.415   1_545  S
Zr93         O97   2.327       .  S
Zr93       O1423   2.332   1_545  S
Zr93        O527   2.361   1_545  S
Zr93       O1012   2.358       .  S
Zr94        O514   2.495   1_545  S
Zr94        O530   2.440   1_546  S
Zr94         O98   2.349   1_556  S
Zr94        O108   2.345       .  S
Zr94        O519   2.339   1_545  S
Zr94        O525   2.357   1_546  S
Zr95        O513   2.484   1_546  S
Zr95        O531   2.436   1_556  S
Zr95         O97   2.327       .  S
Zr95        O110   2.355   1_556  S
Zr95        O518   2.351   1_546  S
Zr95        O527   2.356   1_545  S
Zr96        O986   2.432   1_556  S
Zr96         O97   2.330       .  S
Zr96        O110   2.338   1_556  S
Zr96       O1002   2.330   1_556  S
Zr96       O1012   2.354       .  S
O98       Zr1448   2.333   1_455  S
O98       Zr1000   2.330   1_454  S
C99         C163   1.491       .  S
C100        C258   1.466       .  S
C101        C118   1.471       .  S
C102        C135   1.484       .  S
C103        C230   1.496       .  S
C104        C244   1.482   1_545  S
C105        C216   1.523       .  S
C106        C202   1.527       .  S
H107        O108   0.965       .  S
O108       Zr997   2.358   1_455  S
O108      Zr1000   2.354   1_455  S
H109        O110   0.966       .  S
O110       Zr544   2.359       .  S
C111        C188   1.557       .  S
C111        C205   1.564   1_554  S
C111        C112   1.407       .  D
C112        C177   1.562   1_554  S
C112        C219   1.568       .  S
C113        C149   1.550       .  S
C113        C160   1.569       .  S
C113        C415   1.586       .  S
C113       C1305   1.572       .  S
C114        C121   1.577       .  S
C114        C132   1.571       .  S
C114        C429   1.579       .  S
C114        C892   1.569       .  S
C115        C261   1.563       .  S
C115        C272   1.577       .  S
C115        C289   1.569       .  S
C115       C1207   1.587       .  S
C116        C331   1.561       .  S
C116        C685   1.585       .  S
C116        C699   1.570       .  S
C116        C769   1.574       .  S
C117        C118   1.391       .  A
C117        C122   1.395       .  A
C117        H124   1.086       .  S
C118        C571   1.414       .  A
C119        C120   1.407       .  A
C119        C570   1.414       .  A
C119        N126   1.444       .  S
C120        C573   1.421       .  A
C120        H125   1.084       .  S
C121        C122   1.439       .  A
C121        C572   1.421       .  A
C122        N123   1.429       .  S
N123        O127   1.262       .  A
N123        O128   1.263       .  A
N126        O129   1.260       .  A
N126        O582   1.263       .  A
O130        N578   1.263       .  A
C131        C136   1.388       .  A
C131        C584   1.417   1_545  A
C131        H138   1.081       .  S
C132        C133   1.434       .  A
C132        C583   1.417       .  A
C133        C134   1.407       .  A
C133        N140   1.428       .  S
C134        C135   1.390       .  A
C134        H139   1.066       .  S
C135        C588   1.394       .  A
C136        C587   1.394   1_545  A
C136        N137   1.415       .  S
N137        O141   1.261       .  A
N137        O142   1.263       .  A
N140        O143   1.262       .  A
N140        O596   1.263       .  A
O144        N592   1.263       .  A
C145        C150   1.404       .  A
C145       C1050   1.397       .  A
C145        H152   1.084       .  S
C146        C147   1.410       .  A
C146       C1049   1.397       .  A
C147        C148   1.396       .  A
C147        N154   1.424       .  S
C148        C149   1.401       .  A
C148        H153   1.078       .  S
C149       C1054   1.433       .  A
C150       C1053   1.433       .  A
C150        N151   1.431       .  S
N151        O156   1.262       .  A
N151       O1059   1.262       .  A
N154        O157   1.262       .  A
N154       O1062   1.262       .  A
O155       N1055   1.262       .  A
O158       N1058   1.262       .  A
C159        C160   1.419       .  A
C159        C164   1.407       .  A
C159        H166   1.082       .  S
C160       C1065   1.443       .  A
C161        C162   1.388       .  A
C161       C1064   1.443   1_655  A
C161        N168   1.437       .  S
C162       C1067   1.397       .  A
C162        H167   1.084       .  S
C163        C164   1.412       .  A
C163       C1066   1.397       .  A
C164        N165   1.434       .  S
N165        O170   1.263       .  A
N165       O1073   1.263       .  A
N168        O171   1.262   1_655  A
N168       O1076   1.260       .  A
O169       N1069   1.263       .  A
O172       N1072   1.260       .  A
C173        C174   1.413       .  A
C173        C178   1.416       .  A
C173        H180   1.082       .  S
C174        C175   1.423       .  A
C175        C176   1.422       .  A
C175        N182   1.432       .  S
C176        C177   1.411       .  A
C176        H181   1.078       .  S
C177        C178   1.419       .  A
C178        N179   1.443       .  S
N179        O183   1.263       .  A
N179        O184   1.263       .  A
N182        O185   1.261       .  A
N182        O186   1.262       .  A
C187        C188   1.410       .  A
C187        C192   1.421       .  A
C187        H194   1.080       .  S
C188        C189   1.421       .  A
C189        C190   1.415       .  A
C189        N196   1.442       .  S
C190        C191   1.413       .  A
C190        H195   1.082       .  S
C191        C192   1.425       .  A
C192        N193   1.433       .  S
N193        O197   1.261       .  A
N193        O198   1.262       .  A
N196        O199   1.263       .  A
N196        O200   1.263       .  A
C201        C202   1.416       .  A
C201        C206   1.428       .  A
C201        H208   1.082       .  S
C202        C203   1.410       .  A
C203        C204   1.409       .  A
C203        N210   1.415   1_556  S
C204        C205   1.399       .  A
C204        H209   1.071       .  S
C205        C206   1.428       .  A
C206        N207   1.439       .  S
N207        O211   1.262       .  A
N207        O212   1.263       .  A
N210        O213   1.257       .  A
N210        O214   1.259   1_554  A
C215        C216   1.414       .  A
C215        C220   1.418       .  A
C215        H222   1.082       .  S
C216        C217   1.418       .  A
C217        C218   1.428       .  A
C217        N224   1.430       .  S
C218        C219   1.408       .  A
C218        H223   1.076       .  S
C219        C220   1.419       .  A
C220        N221   1.441       .  S
N221        O225   1.262       .  A
N221        O226   1.263       .  A
N224        O227   1.262       .  A
N224        O228   1.262       .  A
C229        C230   1.410       .  A
C229        C234   1.415       .  A
C229        H236   1.083   1_545  S
C230        C683   1.405       .  A
C231        C232   1.390       .  A
C231        C682   1.405       .  A
C231        N238   1.423       .  S
C232        C685   1.416       .  A
C232        H237   1.082       .  S
C233        C568   1.585   1_545  S
C233        C234   1.425       .  A
C233        C684   1.416       .  A
C234        N235   1.432       .  S
N235        O239   1.261       .  A
N235        O692   1.262   1_545  A
N238        O242   1.262       .  A
N238        O693   1.262       .  A
O240        N687   1.262       .  A
O241        N690   1.262       .  A
C243        C248   1.397       .  A
C243        C696   1.398       .  A
C243        H250   1.084       .  S
C244        C245   1.427   1_565  A
C244        C695   1.398       .  A
C245        C246   1.406       .  A
C245        N252   1.447       .  S
C246        C247   1.409   1_545  A
C246        H251   1.077       .  S
C247        C568   1.570       .  S
C247        C700   1.428       .  A
C248        C699   1.428       .  A
C248        N249   1.433       .  S
N249        O253   1.261       .  A
N249        O254   1.262       .  A
N252        O255   1.257       .  A
N252        O708   1.263       .  A
O256        N704   1.263       .  A
C257        C258   1.395       .  A
C257        C262   1.397       .  A
C257        H264   1.085       .  S
C258       C1163   1.410       .  A
C259        C260   1.402       .  A
C259       C1162   1.410       .  A
C259        N266   1.444       .  S
C260       C1165   1.419   1_455  A
C260        H265   1.078       .  S
C261        C262   1.430       .  A
C261       C1164   1.419       .  A
C262        N263   1.431       .  S
N263        O267   1.261       .  A
N263        O268   1.261       .  A
N266        O269   1.262       .  A
N266        O270   1.263       .  A
C271        C276   1.405       .  A
C271       C1176   1.418   1_455  A
C271        H278   1.082       .  S
C272        C273   1.435       .  A
C272       C1175   1.418       .  A
C273        C274   1.405       .  A
C273        N280   1.427       .  S
C274        C275   1.396       .  A
C274        H279   1.085       .  S
C275       C1180   1.411       .  A
C276       C1179   1.411       .  A
C276        N277   1.444       .  S
N277        O281   1.263       .  A
N277        O282   1.262       .  A
N280        O283   1.261       .  A
N280        O284   1.260       .  A
C285        C286   1.398       .  A
C285        C290   1.408       .  A
C285        H292   1.085       .  S
C286        C287   1.408       .  A
C287        C288   1.394       .  A
C287        N294   1.438       .  S
C288        C289   1.418       .  A
C288        H293   1.083       .  S
C289        C290   1.442       .  A
C290        N291   1.438       .  S
N291        O295   1.263       .  A
N291        O296   1.261       .  A
N294        O297   1.257       .  A
N294        O298   1.263       .  A
C299        C300   1.391       .  A
C299        C304   1.398       .  A
C299        H306   1.085       .  S
C300        C301   1.406       .  A
C301        C302   1.403       .  A
C301        N308   1.438       .  S
C302        C303   1.422       .  A
C302        H307   1.076       .  S
C303       C1019   1.587   1_455  S
C303        C304   1.433       .  A
C304        N305   1.426       .  S
N305        O309   1.262   1_455  A
N305       O1214   1.262       .  A
N308        O311   1.262       .  A
N308        O312   1.263       .  A
O310       N1209   1.262       .  A
C313        C314   1.395       .  A
C313        C318   1.393       .  A
C313        H320   1.084       .  S
C314        C315   1.416       .  A
C315        C316   1.408       .  A
C315        N322   1.435       .  S
C316        C317   1.417       .  A
C316        H321   1.082       .  S
C317        C568   1.574   1_545  S
C317        C318   1.441       .  A
C318        N319   1.432   1_545  S
N319        O323   1.263       .  A
N319        O324   1.260       .  A
N322        O325   1.263       .  A
N322        O326   1.262       .  A
C327        C328   1.387       .  A
C327        C332   1.389       .  A
C327        H334   1.082       .  S
C328        C329   1.412       .  A
C329        C330   1.409       .  A
C329        N336   1.443       .  S
C330        C331   1.414       .  A
C330        H335   1.072       .  S
C331        C332   1.435       .  A
C332        N333   1.430       .  S
N333        O337   1.260       .  A
N333        O338   1.262       .  A
N336        O339   1.261       .  A
N336        O340   1.261       .  A
C341        C342   1.396       .  A
C341        C346   1.385       .  A
C341        H348   1.085       .  S
C342        C343   1.423       .  A
C343        C344   1.411       .  A
C343        N350   1.436       .  S
C344        C345   1.406       .  A
C344        H349   1.078       .  S
C345        C507   1.520   1_545  S
C345        C346   1.425       .  A
C346        N347   1.424       .  S
N347        O351   1.260       .  A
N347        O804   1.263   1_545  A
N350        O353   1.262       .  A
N350        O354   1.263       .  A
O352        N799   1.263       .  A
C355        C356   1.408       .  A
C355        C360   1.413       .  A
C355        H362   1.083       .  S
C356        C357   1.416       .  A
C357        C358   1.384       .  A
C357        N364   1.440       .  S
C358        C359   1.405       .  A
C358        H363   1.082       .  S
C359        C508   1.503   1_545  S
C359        C360   1.423       .  A
C360        N361   1.440       .  S
N361        O365   1.262   1_455  A
N361        O366   1.262   1_455  A
N364        O367   1.263       .  A
N364        O368   1.262       .  A
C369        C370   1.401       .  A
C369        C374   1.402       .  A
C369        H376   1.084       .  S
C370        C371   1.408       .  A
C371        C372   1.397       .  A
C371        N378   1.430       .  S
C372        C373   1.405       .  A
C372        H377   1.078       .  S
C373        C374   1.419       .  A
C374        N375   1.431       .  S
N375        O379   1.262       .  A
N375        O832   1.261       .  A
N378        O381   1.262       .  A
N378        O382   1.263       .  A
O380        N827   1.261       .  A
C383        C384   1.400       .  A
C383        C388   1.391       .  A
C383        H390   1.079       .  S
C384        C385   1.414       .  A
C385        C386   1.399       .  A
C385        N392   1.444       .  S
C386        C387   1.402       .  A
C386        H391   1.084       .  S
C387        C388   1.407       .  A
C388        N389   1.432       .  S
N389        O393   1.261       .  A
N389        O394   1.260       .  A
N392        O395   1.263       .  A
N392        O396   1.262       .  A
C397        C398   1.391       .  A
C397        C402   1.397       .  A
C397        H404   1.076       .  S
C398        C399   1.420       .  A
C399        C400   1.412       .  A
C399        N406   1.436       .  S
C400        C401   1.412       .  A
C400        H405   1.079       .  S
C401       C1017   1.572       .  S
C401        C402   1.430       .  A
C402        N403   1.431       .  S
N403        O407   1.262   1_455  A
N403       O1312   1.262       .  A
N406        O409   1.260       .  A
N406        O410   1.263       .  A
O408       N1307   1.262       .  A
C411        C412   1.400       .  A
C411        C416   1.409       .  A
C411        H418   1.084       .  S
C412        C413   1.403       .  A
C413        C414   1.389       .  A
C413        N420   1.425       .  S
C414        C415   1.418       .  A
C414        H419   1.080       .  S
C415        C416   1.432       .  A
C416        N417   1.426       .  S
N417        O421   1.262       .  A
N417        O422   1.262       .  A
N420        O423   1.262       .  A
N420        O424   1.262       .  A
C425        C426   1.397       .  A
C425        C430   1.407       .  A
C425        H432   1.085       .  S
C426        C427   1.413       .  A
C427        C428   1.402       .  A
C427        N434   1.439       .  S
C428        C429   1.418       .  A
C428        H433   1.082       .  S
C429        C430   1.437       .  A
C430        N431   1.432       .  S
N431        O435   1.263       .  A
N431        O436   1.262       .  A
N434        O437   1.259       .  A
N434        O438   1.263       .  A
C439        C440   1.415       .  A
C439        C444   1.404       .  A
C439        H446   1.082       .  S
C440        C566   1.569   1_545  S
C440        C441   1.437       .  A
C441        C442   1.395       .  A
C441        N448   1.430       .  S
C442        C443   1.390       .  A
C442        H447   1.085       .  S
C443        C444   1.417       .  A
C444        N445   1.449       .  S
N445        O449   1.263       .  A
N445        O450   1.261       .  A
N448        O451   1.263       .  A
N448        O452   1.262       .  A
O453       Zr489   2.457       .  S
O453        C464   1.295       .  A
O454       Zr488   2.425       .  S
O454        C465   1.287       .  A
O455       Zr461   2.438       .  S
O455        C466   1.295       .  A
O456       Zr461   2.396       .  S
O456        C467   1.282       .  A
O457       Zr491   2.458       .  S
O457        C467   1.295       .  A
O458       Zr490   2.434       .  S
O458        C466   1.287       .  A
O459       Zr461   2.442       .  S
O459        C465   1.295       .  A
O460       Zr461   2.411       .  S
O460        C464   1.287       .  A
Zr461       O462   2.320       .  S
Zr461       O463   2.333       .  S
Zr461       O471   2.343       .  S
Zr461       O469   2.313       .  S
O462       Zr488   2.329       .  S
O462       Zr491   2.343       .  S
O463       Zr489   2.346       .  S
O463       Zr490   2.335       .  S
C464        C895   1.467       .  S
C465        C766   1.494       .  S
C466        C794   1.494       .  S
C467        C808   1.483       .  S
H468        O469   0.965       .  S
O469       Zr488   2.334       .  S
O469       Zr490   2.337       .  S
H470        O471   0.964       .  S
O471       Zr489   2.343       .  S
O471       Zr491   2.331       .  S
O472       Zr488   2.411       .  S
O472        C495   1.285       .  A
O473       Zr489   2.462       .  S
O473        C496   1.296       .  A
O474       Zr490   2.445       .  S
O474        C497   1.294       .  A
O475       Zr491   2.446       .  S
O475        C498   1.294       .  A
O476       Zr491   2.496       .  S
O476        C499   1.304       .  A
O477       Zr490   2.442       .  S
O477        C500   1.294       .  A
O478       Zr492   2.448       .  S
O478        C501   1.294       .  A
O479       Zr492   2.443       .  S
O479        C502   1.293       .  A
O480       Zr490   2.407       .  S
O480        C501   1.286       .  A
O481       Zr491   2.437       .  S
O481        C502   1.291       .  A
O482       Zr488   2.435       .  S
O482        C497   1.291       .  A
O483       Zr489   2.430       .  S
O483        C500   1.290       .  A
O484       Zr489   2.410       .  S
O484        C499   1.286       .  A
O485       Zr488   2.433       .  S
O485        C498   1.291       .  A
O486       Zr492   2.443       .  S
O486        C495   1.293       .  A
O487       Zr492   2.429       .  S
O487        C496   1.291       .  A
Zr488       O494   2.339       .  S
Zr488       O506   2.343       .  S
Zr489       O493   2.344       .  S
Zr489       O504   2.342       .  S
Zr490       O494   2.347       .  S
Zr490       O504   2.346       .  S
Zr491       O493   2.343       .  S
Zr491       O506   2.356       .  S
Zr492       O493   2.347       .  S
Zr492       O494   2.337       .  S
Zr492       O506   2.335       .  S
Zr492       O504   2.345       .  S
C495        C780   1.461       .  S
C496        C878   1.484       .  S
C497        C738   1.479       .  S
C498        C752   1.470       .  S
C499        C850   1.487       .  S
C500        C864   1.489       .  S
C501        C836   1.457       .  S
C502        C822   1.475       .  S
H503        O504   0.966       .  S
H505        O506   0.965       .  S
C507        C839   1.478       .  S
C507       C1412   1.382       .  D
C508        C825   1.513       .  S
C508       C1411   1.382   1_455  D
O509        C520   1.293       .  A
O510       Zr544   2.407   1_565  S
O510        C521   1.284       .  A
O511      Zr1421   2.450   1_455  S
O511        C522   1.295       .  A
O512       Zr517   2.453   1_554  S
O512        C523   1.296       .  A
O513        C523   1.300       .  A
O514        C522   1.301       .  A
O515       Zr517   2.482   1_554  S
O515        C521   1.300       .  A
O516       Zr517   2.450       .  S
O516        C520   1.294       .  A
Zr517      O1415   2.450       .  S
Zr517       O518   2.332   1_556  S
Zr517      O1423   2.340       .  S
Zr517       O527   2.367       .  S
Zr517      O1429   2.336   1_556  S
O518       Zr544   2.332   1_565  S
O519      Zr1421   2.340   1_455  S
O519       Zr997   2.332   1_465  S
C520        C727   1.480       .  S
C521        C598   1.480       .  S
C522        C626   1.523       .  S
C523        C643   1.520       .  S
H524        O525   0.965       .  S
O525      Zr1421   2.336   1_454  S
O525      Zr1448   2.356   1_465  S
H526        O527   0.966       .  S
O528        C551   1.288       .  A
O529       Zr545   2.468       .  S
O529        C552   1.296       .  A
O530        C553   1.293       .  A
O531        C554   1.294   1_545  A
O532       Zr547   2.466       .  S
O532        C555   1.299       .  A
O533       Zr546   2.468       .  S
O533        C556   1.299       .  A
O534      Zr1452   2.432   1_454  S
O534        C557   1.291       .  A
O535       Zr548   2.451       .  S
O535        C558   1.294       .  A
O536       Zr546   2.514   1_554  S
O536        C557   1.306       .  A
O537       Zr547   2.513       .  S
O537        C558   1.307       .  A
O538      Zr1448   2.442   1_465  S
O538        C553   1.293       .  A
O539      Zr1449   2.415   1_455  S
O539        C556   1.285       .  A
O540       Zr545   2.425       .  S
O540        C555   1.289       .  A
O541       Zr544   2.450   1_565  S
O541        C554   1.294       .  A
O542       Zr548   2.412   1_554  S
O542        C551   1.289       .  A
O543       Zr548   2.401       .  S
O543        C552   1.284       .  A
Zr544      O1442   2.442   1_545  S
Zr544      O1429   2.356   1_545  S
Zr544      O1002   2.333       .  S
Zr545      O1443   2.415       .  S
Zr545       O971   2.332       .  S
Zr545       O549   2.327       .  S
Zr545      O1464   2.358       .  S
Zr546       O550   2.349   1_556  S
Zr546       O560   2.345       .  S
Zr547       O549   2.327       .  S
Zr547       O562   2.355   1_556  S
Zr548      O1438   2.432   1_556  S
Zr548       O549   2.330       .  S
Zr548      O1454   2.330   1_556  S
Zr548       O562   2.338   1_556  S
Zr548      O1464   2.354       .  S
O550       Zr996   2.333   1_455  S
O550      Zr1452   2.330   1_454  S
C551        C615   1.491       .  S
C552        C710   1.466       .  S
C553        C570   1.471       .  S
C554        C587   1.484       .  S
C555        C682   1.496       .  S
C556        C696   1.482       .  S
C557        C668   1.523       .  S
C558        C654   1.527       .  S
H559        O560   0.965       .  S
O560      Zr1449   2.358   1_455  S
O560      Zr1452   2.354   1_455  S
H561        O562   0.966       .  S
C563        C640   1.557       .  S
C563        C657   1.564   1_554  S
C563        C564   1.407       .  D
C564        C629   1.562   1_554  S
C564        C671   1.568       .  S
C565        C601   1.550       .  S
C565        C612   1.569       .  S
C565       C1757   1.572       .  S
C565        C867   1.586       .  S
C566        C573   1.577       .  S
C566        C584   1.571       .  S
C566        C881   1.579       .  S
C567        C713   1.563       .  S
C567        C724   1.577       .  S
C567        C741   1.569       .  S
C567       C1659   1.587       .  S
C568        C783   1.561       .  S
C569        C570   1.391   1_545  A
C569        C574   1.395       .  A
C569        H576   1.086       .  S
C571        C572   1.407       .  A
C571        N578   1.444       .  S
C572        H577   1.084       .  S
C573        C574   1.439   1_565  A
C574        N575   1.429       .  S
N575        O579   1.262       .  A
N575        O580   1.263       .  A
N578        O581   1.260       .  A
C583        C588   1.388       .  A
C583        H590   1.081       .  S
C584        C585   1.434       .  A
C585        C586   1.407       .  A
C585        N592   1.428       .  S
C586        C587   1.390       .  A
C586        H591   1.066       .  S
C588        N589   1.415       .  S
N589        O593   1.261       .  A
N589        O594   1.263       .  A
N592        O595   1.262       .  A
C597       C1502   1.397       .  A
C597        C602   1.404       .  A
C597        H604   1.084       .  S
C598       C1501   1.397       .  A
C598        C599   1.410       .  A
C599        C600   1.396       .  A
C599        N606   1.424       .  S
C600        C601   1.401       .  A
C600        H605   1.078       .  S
C601       C1506   1.433       .  A
C602       C1505   1.433       .  A
C602        N603   1.431       .  S
N603       O1511   1.262       .  A
N603        O608   1.262       .  A
N606        O609   1.262       .  A
N606       O1514   1.262       .  A
O607       N1507   1.262       .  A
O610       N1510   1.262       .  A
C611        C612   1.419       .  A
C611        C616   1.407       .  A
C611        H618   1.082       .  S
C612       C1517   1.443       .  A
C613       C1516   1.443   1_655  A
C613        C614   1.388       .  A
C613        N620   1.437       .  S
C614       C1519   1.397       .  A
C614        H619   1.084       .  S
C615       C1518   1.397       .  A
C615        C616   1.412       .  A
C616        N617   1.434       .  S
N617       O1525   1.263       .  A
N617        O622   1.263       .  A
N620        O623   1.262   1_655  A
N620       O1528   1.260       .  A
O621       N1521   1.263       .  A
O624       N1524   1.260       .  A
C625        C626   1.413       .  A
C625        C630   1.416       .  A
C625        H632   1.082       .  S
C626        C627   1.423       .  A
C627        C628   1.422       .  A
C627        N634   1.432       .  S
C628        C629   1.411       .  A
C628        H633   1.078       .  S
C629        C630   1.419       .  A
C630        N631   1.443       .  S
N631        O635   1.263       .  A
N631        O636   1.263       .  A
N634        O637   1.261       .  A
N634        O638   1.262       .  A
C639        C640   1.410       .  A
C639        C644   1.421       .  A
C639        H646   1.080       .  S
C640        C641   1.421       .  A
C641        C642   1.415       .  A
C641        N648   1.442       .  S
C642        C643   1.413       .  A
C642        H647   1.082       .  S
C643        C644   1.425       .  A
C644        N645   1.433       .  S
N645        O649   1.261       .  A
N645        O650   1.262       .  A
N648        O651   1.263       .  A
N648        O652   1.263       .  A
C653        C654   1.416       .  A
C653        C658   1.428       .  A
C653        H660   1.082       .  S
C654        C655   1.410       .  A
C655        C656   1.409       .  A
C655        N662   1.415   1_556  S
C656        C657   1.399       .  A
C656        H661   1.071       .  S
C657        C658   1.428       .  A
C658        N659   1.439       .  S
N659        O663   1.262       .  A
N659        O664   1.263       .  A
N662        O665   1.257       .  A
N662        O666   1.259   1_554  A
C667        C668   1.414       .  A
C667        C672   1.418       .  A
C667        H674   1.082       .  S
C668        C669   1.418       .  A
C669        C670   1.428       .  A
C669        N676   1.430       .  S
C670        C671   1.408       .  A
C670        H675   1.076       .  S
C671        C672   1.419       .  A
C672        N673   1.441       .  S
N673        O677   1.262       .  A
N673        O678   1.263       .  A
N676        O679   1.262       .  A
N676        O680   1.262       .  A
C681        C682   1.410       .  A
C681        C686   1.415       .  A
C681        H688   1.083       .  S
C683        C684   1.390       .  A
C683        N690   1.423       .  S
C684        H689   1.082       .  S
C685        C686   1.425       .  A
C686        N687   1.432       .  S
N687        O691   1.261       .  A
N690        O694   1.262       .  A
C695        C700   1.397       .  A
C695        H702   1.084       .  S
C696        C697   1.427       .  A
C697        C698   1.406       .  A
C697        N704   1.447       .  S
C698        C699   1.409       .  A
C698        H703   1.077       .  S
C700        N701   1.433       .  S
N701        O705   1.261       .  A
N701        O706   1.262       .  A
N704        O707   1.257       .  A
C709        C710   1.395       .  A
C709        C714   1.397       .  A
C709        H716   1.085       .  S
C710       C1615   1.410       .  A
C711       C1614   1.410       .  A
C711        C712   1.402       .  A
C711        N718   1.444       .  S
C712       C1617   1.419   1_455  A
C712        H717   1.078       .  S
C713       C1616   1.419       .  A
C713        C714   1.430       .  A
C714        N715   1.431       .  S
N715        O719   1.261       .  A
N715        O720   1.261       .  A
N718        O721   1.262       .  A
N718        O722   1.263       .  A
C723       C1628   1.418   1_455  A
C723        C728   1.405       .  A
C723        H730   1.082       .  S
C724       C1627   1.418       .  A
C724        C725   1.435       .  A
C725        C726   1.405       .  A
C725        N732   1.427       .  S
C726        C727   1.396       .  A
C726        H731   1.085       .  S
C727       C1632   1.411       .  A
C728       C1631   1.411       .  A
C728        N729   1.444       .  S
N729        O733   1.263       .  A
N729        O734   1.262       .  A
N732        O735   1.261       .  A
N732        O736   1.260       .  A
C737        C738   1.398       .  A
C737        C742   1.408       .  A
C737        H744   1.085       .  S
C738        C739   1.408       .  A
C739        C740   1.394       .  A
C739        N746   1.438       .  S
C740        C741   1.418       .  A
C740        H745   1.083       .  S
C741        C742   1.442       .  A
C742        N743   1.438       .  S
N743        O747   1.263       .  A
N743        O748   1.261       .  A
N746        O749   1.257       .  A
N746        O750   1.263       .  A
C751        C752   1.391       .  A
C751        C756   1.398       .  A
C751        H758   1.085       .  S
C752        C753   1.406       .  A
C753        C754   1.403       .  A
C753        N760   1.438       .  S
C754        C755   1.422       .  A
C754        H759   1.076       .  S
C755       C1471   1.587   1_455  S
C755        C756   1.433       .  A
C756        N757   1.426       .  S
N757        O761   1.262   1_455  A
N757       O1666   1.262       .  A
N760        O763   1.262       .  A
N760        O764   1.263       .  A
O762       N1661   1.262       .  A
C765        C766   1.395       .  A
C765        C770   1.393       .  A
C765        H772   1.084       .  S
C766        C767   1.416       .  A
C767        C768   1.408       .  A
C767        N774   1.435       .  S
C768        C769   1.417       .  A
C768        H773   1.082       .  S
C769        C770   1.441       .  A
C770        N771   1.432       .  S
N771        O775   1.263       .  A
N771        O776   1.260       .  A
N774        O777   1.263       .  A
N774        O778   1.262       .  A
C779        C780   1.387       .  A
C779        C784   1.389       .  A
C779        H786   1.082       .  S
C780        C781   1.412       .  A
C781        C782   1.409       .  A
C781        N788   1.443       .  S
C782        C783   1.414       .  A
C782        H787   1.072       .  S
C783        C784   1.435       .  A
C784        N785   1.430       .  S
N785        O789   1.260       .  A
N785        O790   1.262       .  A
N788        O791   1.261       .  A
N788        O792   1.261       .  A
C793        C794   1.396       .  A
C793        C798   1.385       .  A
C793        H800   1.085       .  S
C794        C795   1.423       .  A
C795        C796   1.411       .  A
C795        N802   1.436       .  S
C796        C797   1.406       .  A
C796        H801   1.078       .  S
C797        C798   1.425       .  A
C798        N799   1.424       .  S
N799        O803   1.260       .  A
N802        O805   1.262       .  A
N802        O806   1.263       .  A
C807        C808   1.408       .  A
C807        C812   1.413       .  A
C807        H814   1.083       .  S
C808        C809   1.416       .  A
C809        C810   1.384       .  A
C809        N816   1.440       .  S
C810        C811   1.405       .  A
C810        H815   1.082       .  S
C811        C812   1.423       .  A
C812        N813   1.440       .  S
N813        O817   1.262   1_455  A
N813        O818   1.262   1_455  A
N816        O819   1.263       .  A
N816        O820   1.262       .  A
C821        C822   1.401       .  A
C821        C826   1.402       .  A
C821        H828   1.084       .  S
C822        C823   1.408       .  A
C823        C824   1.397       .  A
C823        N830   1.430       .  S
C824        C825   1.405       .  A
C824        H829   1.078       .  S
C825        C826   1.419       .  A
C826        N827   1.431       .  S
N827        O831   1.262   1_565  A
N830        O833   1.262       .  A
N830        O834   1.263       .  A
C835        C836   1.400       .  A
C835        C840   1.391       .  A
C835        H842   1.079       .  S
C836        C837   1.414       .  A
C837        C838   1.399       .  A
C837        N844   1.444       .  S
C838        C839   1.402       .  A
C838        H843   1.084       .  S
C839        C840   1.407       .  A
C840        N841   1.432       .  S
N841        O845   1.261       .  A
N841        O846   1.261       .  A
N844        O847   1.263       .  A
N844        O848   1.262       .  A
C849        C850   1.391       .  A
C849        C854   1.397       .  A
C849        H856   1.076       .  S
C850        C851   1.420       .  A
C851        C852   1.412       .  A
C851        N858   1.436       .  S
C852        C853   1.412       .  A
C852        H857   1.079       .  S
C853       C1469   1.572       .  S
C853        C854   1.430       .  A
C854        N855   1.431       .  S
N855        O859   1.262   1_455  A
N855       O1764   1.262       .  A
N858        O861   1.260       .  A
N858        O862   1.263       .  A
O860       N1759   1.262       .  A
C863        C864   1.400       .  A
C863        C868   1.409       .  A
C863        H870   1.084       .  S
C864        C865   1.403       .  A
C865        C866   1.389       .  A
C865        N872   1.425       .  S
C866        C867   1.418       .  A
C866        H871   1.080       .  S
C867        C868   1.432       .  A
C868        N869   1.426       .  S
N869        O873   1.262       .  A
N869        O874   1.262       .  A
N872        O875   1.262       .  A
N872        O876   1.262       .  A
C877        C878   1.397       .  A
C877        C882   1.407       .  A
C877        H884   1.085       .  S
C878        C879   1.413       .  A
C879        C880   1.402       .  A
C879        N886   1.439       .  S
C880        C881   1.418       .  A
C880        H885   1.082       .  S
C881        C882   1.437       .  A
C882        N883   1.432       .  S
N883        O887   1.263       .  A
N883        O888   1.262       .  A
N886        O889   1.259       .  A
N886        O890   1.263       .  A
C891        C892   1.415       .  A
C891        C896   1.404       .  A
C891        H898   1.082       .  S
C892        C893   1.437       .  A
C893        C894   1.395       .  A
C893        N900   1.430       .  S
C894        C895   1.390       .  A
C894        H899   1.085       .  S
C895        C896   1.417       .  A
C896        N897   1.449       .  S
N897        O901   1.263       .  A
N897        O902   1.261       .  A
N900        O903   1.263       .  A
N900        O904   1.262       .  A
O905       Zr941   2.457       .  S
O905        C916   1.295       .  A
O906       Zr940   2.425       .  S
O906        C917   1.287       .  A
O907       Zr913   2.438       .  S
O907        C918   1.295       .  A
O908       Zr913   2.396       .  S
O908        C919   1.282       .  A
O909       Zr943   2.458       .  S
O909        C919   1.295       .  A
O910       Zr942   2.434       .  S
O910        C918   1.287       .  A
O911       Zr913   2.442       .  S
O911        C917   1.295       .  A
O912       Zr913   2.411       .  S
O912        C916   1.287       .  A
Zr913       O914   2.320       .  S
Zr913       O915   2.333       .  S
Zr913       O923   2.343       .  S
Zr913       O921   2.313       .  S
O914       Zr940   2.329       .  S
O914       Zr943   2.343       .  S
O915       Zr941   2.346       .  S
O915       Zr942   2.335       .  S
C916       C1347   1.467       .  S
C917       C1218   1.494       .  S
C918       C1246   1.494       .  S
C919       C1260   1.483       .  S
H920        O921   0.965       .  S
O921       Zr940   2.334       .  S
O921       Zr942   2.337       .  S
H922        O923   0.964       .  S
O923       Zr941   2.343       .  S
O923       Zr943   2.331       .  S
O924       Zr940   2.411       .  S
O924        C947   1.285       .  A
O925       Zr941   2.462       .  S
O925        C948   1.296       .  A
O926       Zr942   2.445       .  S
O926        C949   1.294       .  A
O927       Zr943   2.446       .  S
O927        C950   1.294       .  A
O928       Zr943   2.496       .  S
O928        C951   1.304       .  A
O929       Zr942   2.442       .  S
O929        C952   1.294       .  A
O930       Zr944   2.448       .  S
O930        C953   1.294       .  A
O931       Zr944   2.443       .  S
O931        C954   1.293       .  A
O932       Zr942   2.407       .  S
O932        C953   1.286       .  A
O933       Zr943   2.437       .  S
O933        C954   1.291       .  A
O934       Zr940   2.435       .  S
O934        C949   1.291       .  A
O935       Zr941   2.430       .  S
O935        C952   1.290       .  A
O936       Zr941   2.410       .  S
O936        C951   1.286       .  A
O937       Zr940   2.433       .  S
O937        C950   1.291       .  A
O938       Zr944   2.443       .  S
O938        C947   1.293       .  A
O939       Zr944   2.429       .  S
O939        C948   1.291       .  A
Zr940       O946   2.339       .  S
Zr940       O958   2.343       .  S
Zr941       O945   2.344       .  S
Zr941       O956   2.342       .  S
Zr942       O946   2.347       .  S
Zr942       O956   2.346       .  S
Zr943       O945   2.343       .  S
Zr943       O958   2.356       .  S
Zr944       O945   2.347       .  S
Zr944       O946   2.337       .  S
Zr944       O958   2.335       .  S
Zr944       O956   2.345       .  S
C947       C1232   1.461       .  S
C948       C1330   1.484       .  S
C949       C1190   1.479       .  S
C950       C1204   1.470       .  S
C951       C1302   1.487       .  S
C952       C1316   1.489       .  S
C953       C1288   1.457       .  S
C954       C1274   1.475       .  S
H955        O956   0.966       .  S
H957        O958   0.965       .  S
C959       C1701   1.520       .  S
C959       C1291   1.478       .  S
C960       C1715   1.503       .  S
C960       C1277   1.513       .  S
O961      Zr1449   2.448       .  S
O961        C972   1.293       .  A
O962       Zr996   2.407       .  S
O962        C973   1.284   1_655  A
O963        C974   1.295       .  A
O964       Zr969   2.453   1_554  S
O964        C975   1.296       .  A
O965      Zr1451   2.484   1_554  S
O965        C975   1.300       .  A
O966      Zr1450   2.495       .  S
O966        C974   1.301       .  A
O967       Zr969   2.482   1_454  S
O967        C973   1.300       .  A
O968       Zr969   2.450       .  S
O968        C972   1.294       .  A
Zr969       O970   2.332   1_556  S
Zr969       O979   2.367       .  S
O970       Zr996   2.332       .  S
O970      Zr1451   2.351   1_554  S
O971      Zr1450   2.339       .  S
C972       C1179   1.480   1_655  S
C973       C1050   1.480       .  S
C974       C1078   1.523       .  S
C975       C1095   1.520       .  S
H976        O977   0.965       .  S
O977      Zr1450   2.357   1_554  S
H978        O979   0.966       .  S
O979      Zr1449   2.361       .  S
O979      Zr1451   2.356       .  S
O980      Zr1448   2.437       .  S
O980       C1003   1.288       .  A
O981       Zr997   2.468   1_455  S
O981       C1004   1.296       .  A
O982      Zr1450   2.440   1_554  S
O982       C1005   1.293       .  A
O983      Zr1451   2.436   1_554  S
O983       C1006   1.294       .  A
O984       Zr999   2.466       .  S
O984       C1007   1.299       .  A
O985       Zr998   2.468       .  S
O985       C1008   1.299       .  A
O986       C1009   1.291       .  A
O987      Zr1000   2.451       .  S
O987       C1010   1.294       .  A
O988       Zr998   2.514   1_554  S
O988       C1009   1.306       .  A
O989       Zr999   2.513       .  S
O989       C1010   1.307       .  A
O990       C1005   1.293       .  A
O991       C1008   1.285   1_565  A
O992       Zr997   2.425       .  S
O992       C1007   1.289       .  A
O993       Zr996   2.450       .  S
O993       C1006   1.294       .  A
O994      Zr1000   2.412   1_554  S
O994       C1003   1.289       .  A
O995      Zr1000   2.401   1_455  S
O995       C1004   1.284       .  A
Zr996      O1432   2.437       .  S
Zr996      O1466   2.359       .  S
Zr997      O1413   2.448   1_545  S
Zr997      O1431   2.361   1_545  S
Zr997      O1001   2.327       .  S
Zr998      O1418   2.495   1_545  S
Zr998      O1434   2.440   1_546  S
Zr998      O1423   2.339   1_545  S
Zr998      O1429   2.357   1_546  S
Zr998      O1002   2.349   1_556  S
Zr998      O1012   2.345       .  S
Zr999      O1417   2.484   1_546  S
Zr999      O1435   2.436   1_556  S
Zr999      O1422   2.351   1_546  S
Zr999      O1431   2.356   1_545  S
Zr999      O1001   2.327       .  S
Zr999      O1014   2.355   1_556  S
Zr1000     O1001   2.330       .  S
Zr1000     O1014   2.338   1_556  S
C1003      C1067   1.491       .  S
C1004      C1162   1.466       .  S
C1005      C1022   1.471       .  S
C1006      C1039   1.484       .  S
C1007      C1134   1.496       .  S
C1008      C1148   1.482   1_545  S
C1009      C1120   1.523       .  S
C1010      C1106   1.527       .  S
H1011      O1012   0.965       .  S
H1013      O1014   0.966       .  S
O1014     Zr1448   2.359       .  S
C1015      C1092   1.557       .  S
C1015      C1109   1.564   1_554  S
C1015      C1016   1.407       .  D
C1016      C1081   1.562   1_554  S
C1016      C1123   1.568       .  S
C1017      C1053   1.550       .  S
C1017      C1064   1.569       .  S
C1017      C1319   1.586   1_455  S
C1018      C1025   1.577       .  S
C1018      C1036   1.571       .  S
C1018      C1333   1.579       .  S
C1018      C1796   1.569       .  S
C1019      C1165   1.563       .  S
C1019      C1176   1.577       .  S
C1019      C1193   1.569       .  S
C1020      C1589   1.585       .  S
C1020      C1603   1.570       .  S
C1020      C1673   1.574       .  S
C1020      C1235   1.561       .  S
C1021      C1022   1.391       .  A
C1021      C1026   1.395       .  A
C1021      H1028   1.086       .  S
C1022      C1475   1.414       .  A
C1023      C1474   1.414       .  A
C1023      C1024   1.407       .  A
C1023      N1030   1.444       .  S
C1024      C1477   1.421       .  A
C1024      H1029   1.084       .  S
C1025      C1476   1.421       .  A
C1025      C1026   1.439       .  A
C1026      N1027   1.429       .  S
N1027      O1031   1.262       .  A
N1027      O1032   1.263       .  A
N1030      O1033   1.260       .  A
N1030      O1486   1.263       .  A
O1034      N1482   1.263       .  A
C1035      C1488   1.417   1_545  A
C1035      C1040   1.388       .  A
C1035      H1042   1.081       .  S
C1036      C1487   1.417       .  A
C1036      C1037   1.434       .  A
C1037      C1038   1.407       .  A
C1037      N1044   1.428       .  S
C1038      C1039   1.390       .  A
C1038      H1043   1.066       .  S
C1039      C1492   1.394       .  A
C1040      C1491   1.394   1_545  A
C1040      N1041   1.415       .  S
N1041      O1045   1.261       .  A
N1041      O1046   1.263       .  A
N1044      O1047   1.262       .  A
N1044      O1500   1.263       .  A
O1048      N1496   1.263       .  A
C1049      C1054   1.404       .  A
C1049      H1056   1.084       .  S
C1050      C1051   1.410   1_455  A
C1051      C1052   1.396       .  A
C1051      N1058   1.424       .  S
C1052      C1053   1.401   1_655  A
C1052      H1057   1.078       .  S
C1054      N1055   1.431       .  S
N1055      O1060   1.262       .  A
N1058      O1061   1.262       .  A
C1063      C1064   1.419       .  A
C1063      C1068   1.407       .  A
C1063      H1070   1.082       .  S
C1065      C1066   1.388       .  A
C1065      N1072   1.437       .  S
C1066      H1071   1.084       .  S
C1067      C1068   1.412   1_655  A
C1068      N1069   1.434       .  S
N1069      O1074   1.263   1_455  A
N1072      O1075   1.262       .  A
C1077      C1078   1.413       .  A
C1077      C1082   1.416       .  A
C1077      H1084   1.082       .  S
C1078      C1079   1.423       .  A
C1079      C1080   1.422       .  A
C1079      N1086   1.432       .  S
C1080      C1081   1.411       .  A
C1080      H1085   1.078       .  S
C1081      C1082   1.419       .  A
C1082      N1083   1.443       .  S
N1083      O1087   1.263       .  A
N1083      O1088   1.263       .  A
N1086      O1089   1.261       .  A
N1086      O1090   1.262       .  A
C1091      C1092   1.410       .  A
C1091      C1096   1.421       .  A
C1091      H1098   1.080       .  S
C1092      C1093   1.421       .  A
C1093      C1094   1.415       .  A
C1093      N1100   1.442       .  S
C1094      C1095   1.413       .  A
C1094      H1099   1.082       .  S
C1095      C1096   1.425       .  A
C1096      N1097   1.433       .  S
N1097      O1101   1.261       .  A
N1097      O1102   1.262       .  A
N1100      O1103   1.263       .  A
N1100      O1104   1.263       .  A
C1105      C1106   1.416       .  A
C1105      C1110   1.428       .  A
C1105      H1112   1.082       .  S
C1106      C1107   1.410       .  A
C1107      C1108   1.409       .  A
C1107      N1114   1.415   1_556  S
C1108      C1109   1.399       .  A
C1108      H1113   1.071       .  S
C1109      C1110   1.428       .  A
C1110      N1111   1.439       .  S
N1111      O1115   1.262       .  A
N1111      O1116   1.263       .  A
N1114      O1117   1.257       .  A
N1114      O1118   1.259   1_554  A
C1119      C1120   1.414       .  A
C1119      C1124   1.418       .  A
C1119      H1126   1.082       .  S
C1120      C1121   1.418       .  A
C1121      C1122   1.428       .  A
C1121      N1128   1.430       .  S
C1122      C1123   1.408       .  A
C1122      H1127   1.076       .  S
C1123      C1124   1.419       .  A
C1124      N1125   1.441       .  S
N1125      O1129   1.262       .  A
N1125      O1130   1.263       .  A
N1128      O1131   1.262       .  A
N1128      O1132   1.262       .  A
C1133      C1134   1.410       .  A
C1133      C1138   1.415       .  A
C1133      H1140   1.083   1_545  S
C1134      C1587   1.405       .  A
C1135      C1586   1.405       .  A
C1135      C1136   1.390       .  A
C1135      N1142   1.423       .  S
C1136      C1589   1.416       .  A
C1136      H1141   1.082       .  S
C1137      C1472   1.585   1_545  S
C1137      C1588   1.416       .  A
C1137      C1138   1.425       .  A
C1138      N1139   1.432       .  S
N1139      O1143   1.261       .  A
N1139      O1596   1.262   1_545  A
N1142      O1597   1.262       .  A
N1142      O1146   1.262       .  A
O1144      N1591   1.262       .  A
O1145      N1594   1.262       .  A
C1147      C1600   1.398       .  A
C1147      C1152   1.397       .  A
C1147      H1154   1.084       .  S
C1148      C1599   1.398       .  A
C1148      C1149   1.427   1_565  A
C1149      C1150   1.406       .  A
C1149      N1156   1.447       .  S
C1150      C1151   1.409   1_545  A
C1150      H1155   1.077       .  S
C1151      C1472   1.570       .  S
C1151      C1604   1.428       .  A
C1152      C1603   1.428       .  A
C1152      N1153   1.433       .  S
N1153      O1157   1.261       .  A
N1153      O1158   1.262       .  A
N1156      O1159   1.257       .  A
N1156      O1612   1.263       .  A
O1160      N1608   1.263       .  A
C1161      C1162   1.395   1_655  A
C1161      C1166   1.397       .  A
C1161      H1168   1.085       .  S
C1163      C1164   1.402       .  A
C1163      N1170   1.444       .  S
C1164      H1169   1.078       .  S
C1165      C1166   1.430       .  A
C1166      N1167   1.431       .  S
N1167      O1171   1.261       .  A
N1167      O1172   1.261       .  A
N1170      O1173   1.262       .  A
N1170      O1174   1.263       .  A
C1175      C1180   1.405       .  A
C1175      H1182   1.082       .  S
C1176      C1177   1.435       .  A
C1177      C1178   1.405       .  A
C1177      N1184   1.427       .  S
C1178      C1179   1.396   1_655  A
C1178      H1183   1.085       .  S
C1180      N1181   1.444       .  S
N1181      O1185   1.263       .  A
N1181      O1186   1.262       .  A
N1184      O1187   1.261       .  A
N1184      O1188   1.260       .  A
C1189      C1190   1.398       .  A
C1189      C1194   1.408       .  A
C1189      H1196   1.085       .  S
C1190      C1191   1.408       .  A
C1191      C1192   1.394       .  A
C1191      N1198   1.438       .  S
C1192      C1193   1.418       .  A
C1192      H1197   1.083       .  S
C1193      C1194   1.442       .  A
C1194      N1195   1.438       .  S
N1195      O1199   1.263       .  A
N1195      O1200   1.261       .  A
N1198      O1201   1.257       .  A
N1198      O1202   1.263       .  A
C1203      C1204   1.391       .  A
C1203      C1208   1.398       .  A
C1203      H1210   1.085       .  S
C1204      C1205   1.406       .  A
C1205      C1206   1.403       .  A
C1205      N1212   1.438       .  S
C1206      C1207   1.422       .  A
C1206      H1211   1.076       .  S
C1207      C1208   1.433       .  A
C1208      N1209   1.426       .  S
N1209      O1213   1.262       .  A
N1212      O1215   1.262       .  A
N1212      O1216   1.263       .  A
C1217      C1218   1.395       .  A
C1217      C1222   1.393       .  A
C1217      H1224   1.084       .  S
C1218      C1219   1.416       .  A
C1219      C1220   1.408       .  A
C1219      N1226   1.435       .  S
C1220      C1221   1.417       .  A
C1220      H1225   1.082       .  S
C1221      C1472   1.574   1_545  S
C1221      C1222   1.441       .  A
C1222      N1223   1.432   1_545  S
N1223      O1227   1.263       .  A
N1223      O1228   1.260       .  A
N1226      O1229   1.263       .  A
N1226      O1230   1.262       .  A
C1231      C1232   1.387       .  A
C1231      C1236   1.389       .  A
C1231      H1238   1.082       .  S
C1232      C1233   1.412       .  A
C1233      C1234   1.409       .  A
C1233      N1240   1.443       .  S
C1234      C1235   1.414       .  A
C1234      H1239   1.072       .  S
C1235      C1236   1.435       .  A
C1236      N1237   1.430       .  S
N1237      O1241   1.260       .  A
N1237      O1242   1.262       .  A
N1240      O1243   1.261       .  A
N1240      O1244   1.261       .  A
C1245      C1246   1.396       .  A
C1245      C1250   1.385       .  A
C1245      H1252   1.085       .  S
C1246      C1247   1.423       .  A
C1247      C1248   1.411       .  A
C1247      N1254   1.436       .  S
C1248      C1249   1.406       .  A
C1248      H1253   1.078       .  S
C1249      C1411   1.520   1_545  S
C1249      C1250   1.425       .  A
C1250      N1251   1.424       .  S
N1251      O1255   1.260       .  A
N1251      O1708   1.263   1_545  A
N1254      O1257   1.262       .  A
N1254      O1258   1.263       .  A
O1256      N1703   1.263       .  A
C1259      C1260   1.408       .  A
C1259      C1264   1.413       .  A
C1259      H1266   1.083       .  S
C1260      C1261   1.416       .  A
C1261      C1262   1.384       .  A
C1261      N1268   1.440       .  S
C1262      C1263   1.405       .  A
C1262      H1267   1.082       .  S
C1263      C1412   1.503   1_545  S
C1263      C1264   1.423       .  A
C1264      N1265   1.440       .  S
N1265      O1269   1.262       .  A
N1265      O1270   1.262       .  A
N1268      O1271   1.263       .  A
N1268      O1272   1.262       .  A
C1273      C1274   1.401       .  A
C1273      C1278   1.402       .  A
C1273      H1280   1.084       .  S
C1274      C1275   1.408       .  A
C1275      C1276   1.397       .  A
C1275      N1282   1.430       .  S
C1276      C1277   1.405       .  A
C1276      H1281   1.078       .  S
C1277      C1278   1.419       .  A
C1278      N1279   1.431       .  S
N1279      O1283   1.262       .  A
N1279      O1736   1.261       .  A
N1282      O1285   1.262       .  A
N1282      O1286   1.263       .  A
O1284      N1731   1.261       .  A
C1287      C1288   1.400       .  A
C1287      C1292   1.391       .  A
C1287      H1294   1.079       .  S
C1288      C1289   1.414       .  A
C1289      C1290   1.399       .  A
C1289      N1296   1.444       .  S
C1290      C1291   1.402       .  A
C1290      H1295   1.084       .  S
C1291      C1292   1.407       .  A
C1292      N1293   1.432       .  S
N1293      O1297   1.261       .  A
N1293      O1298   1.260       .  A
N1296      O1299   1.263       .  A
N1296      O1300   1.262       .  A
C1301      C1302   1.391       .  A
C1301      C1306   1.397       .  A
C1301      H1308   1.076       .  S
C1302      C1303   1.420       .  A
C1303      C1304   1.412       .  A
C1303      N1310   1.436       .  S
C1304      C1305   1.412       .  A
C1304      H1309   1.079       .  S
C1305      C1306   1.430       .  A
C1306      N1307   1.431       .  S
N1307      O1311   1.262       .  A
N1310      O1313   1.260       .  A
N1310      O1314   1.263       .  A
C1315      C1316   1.400       .  A
C1315      C1320   1.409       .  A
C1315      H1322   1.084       .  S
C1316      C1317   1.403       .  A
C1317      C1318   1.389       .  A
C1317      N1324   1.425       .  S
C1318      C1319   1.418       .  A
C1318      H1323   1.080   1_655  S
C1319      C1320   1.432       .  A
C1320      N1321   1.426       .  S
N1321      O1325   1.262       .  A
N1321      O1326   1.262       .  A
N1324      O1327   1.262       .  A
N1324      O1328   1.262       .  A
C1329      C1330   1.397       .  A
C1329      C1334   1.407       .  A
C1329      H1336   1.085       .  S
C1330      C1331   1.413       .  A
C1331      C1332   1.402       .  A
C1331      N1338   1.439       .  S
C1332      C1333   1.418       .  A
C1332      H1337   1.082       .  S
C1333      C1334   1.437       .  A
C1334      N1335   1.432       .  S
N1335      O1339   1.263       .  A
N1335      O1340   1.262       .  A
N1338      O1341   1.259       .  A
N1338      O1342   1.263       .  A
C1343      C1344   1.415       .  A
C1343      C1348   1.404       .  A
C1343      H1350   1.082       .  S
C1344      C1470   1.569   1_545  S
C1344      C1345   1.437       .  A
C1345      C1346   1.395       .  A
C1345      N1352   1.430       .  S
C1346      C1347   1.390       .  A
C1346      H1351   1.085       .  S
C1347      C1348   1.417       .  A
C1348      N1349   1.449       .  S
N1349      O1353   1.263       .  A
N1349      O1354   1.261       .  A
N1352      O1355   1.263       .  A
N1352      O1356   1.262       .  A
O1357     Zr1393   2.457       .  S
O1357      C1368   1.295       .  A
O1358     Zr1392   2.425       .  S
O1358      C1369   1.287       .  A
O1359     Zr1365   2.438       .  S
O1359      C1370   1.295       .  A
O1360     Zr1365   2.396       .  S
O1360      C1371   1.282       .  A
O1361     Zr1395   2.458       .  S
O1361      C1371   1.295       .  A
O1362     Zr1394   2.434       .  S
O1362      C1370   1.287       .  A
O1363     Zr1365   2.442       .  S
O1363      C1369   1.295       .  A
O1364     Zr1365   2.411       .  S
O1364      C1368   1.287       .  A
Zr1365     O1366   2.320       .  S
Zr1365     O1367   2.333       .  S
Zr1365     O1375   2.343       .  S
Zr1365     O1373   2.313       .  S
O1366     Zr1392   2.329       .  S
O1366     Zr1395   2.343       .  S
O1367     Zr1393   2.346       .  S
O1367     Zr1394   2.335       .  S
C1368      C1799   1.467       .  S
C1369      C1670   1.494       .  S
C1370      C1698   1.494       .  S
C1371      C1712   1.483       .  S
H1372      O1373   0.965       .  S
O1373     Zr1392   2.334       .  S
O1373     Zr1394   2.337       .  S
H1374      O1375   0.964       .  S
O1375     Zr1393   2.343       .  S
O1375     Zr1395   2.331       .  S
O1376     Zr1392   2.411       .  S
O1376      C1399   1.285       .  A
O1377     Zr1393   2.462       .  S
O1377      C1400   1.296       .  A
O1378     Zr1394   2.445       .  S
O1378      C1401   1.294       .  A
O1379     Zr1395   2.446       .  S
O1379      C1402   1.294       .  A
O1380     Zr1395   2.496       .  S
O1380      C1403   1.304       .  A
O1381     Zr1394   2.442       .  S
O1381      C1404   1.294       .  A
O1382     Zr1396   2.448       .  S
O1382      C1405   1.294       .  A
O1383     Zr1396   2.443       .  S
O1383      C1406   1.293       .  A
O1384     Zr1394   2.407       .  S
O1384      C1405   1.286       .  A
O1385     Zr1395   2.437       .  S
O1385      C1406   1.291       .  A
O1386     Zr1392   2.435       .  S
O1386      C1401   1.291       .  A
O1387     Zr1393   2.430       .  S
O1387      C1404   1.290       .  A
O1388     Zr1393   2.410       .  S
O1388      C1403   1.286       .  A
O1389     Zr1392   2.433       .  S
O1389      C1402   1.291       .  A
O1390     Zr1396   2.443       .  S
O1390      C1399   1.293       .  A
O1391     Zr1396   2.429       .  S
O1391      C1400   1.291       .  A
Zr1392     O1398   2.339       .  S
Zr1392     O1410   2.343       .  S
Zr1393     O1397   2.344       .  S
Zr1393     O1408   2.342       .  S
Zr1394     O1398   2.347       .  S
Zr1394     O1408   2.346       .  S
Zr1395     O1397   2.343       .  S
Zr1395     O1410   2.356       .  S
Zr1396     O1397   2.347       .  S
Zr1396     O1398   2.337       .  S
Zr1396     O1410   2.335       .  S
Zr1396     O1408   2.345       .  S
C1399      C1684   1.461       .  S
C1400      C1782   1.484       .  S
C1401      C1642   1.479       .  S
C1402      C1656   1.470       .  S
C1403      C1754   1.487       .  S
C1404      C1768   1.489       .  S
C1405      C1740   1.457       .  S
C1406      C1726   1.475       .  S
H1407      O1408   0.966       .  S
H1409      O1410   0.965       .  S
C1411      C1743   1.478       .  S
C1412      C1729   1.513       .  S
O1413      C1424   1.293       .  A
O1414     Zr1448   2.407   1_565  S
O1414      C1425   1.284   1_655  A
O1415      C1426   1.295       .  A
O1416     Zr1421   2.453   1_554  S
O1416      C1427   1.296       .  A
O1417      C1427   1.300       .  A
O1418      C1426   1.301       .  A
O1419     Zr1421   2.482   1_454  S
O1419      C1425   1.300       .  A
O1420     Zr1421   2.450       .  S
O1420      C1424   1.294       .  A
Zr1421     O1422   2.332   1_556  S
Zr1421     O1431   2.367       .  S
O1422     Zr1448   2.332   1_565  S
C1424      C1631   1.480   1_655  S
C1425      C1502   1.480       .  S
C1426      C1530   1.523       .  S
C1427      C1547   1.520       .  S
H1428      O1429   0.965       .  S
H1430      O1431   0.966       .  S
O1432      C1455   1.288       .  A
O1433     Zr1449   2.468   1_455  S
O1433      C1456   1.296       .  A
O1434      C1457   1.293       .  A
O1435      C1458   1.294   1_545  A
O1436     Zr1451   2.466       .  S
O1436      C1459   1.299       .  A
O1437     Zr1450   2.468       .  S
O1437      C1460   1.299       .  A
O1438      C1461   1.291       .  A
O1439     Zr1452   2.451       .  S
O1439      C1462   1.294       .  A
O1440     Zr1450   2.514   1_554  S
O1440      C1461   1.306       .  A
O1441     Zr1451   2.513       .  S
O1441      C1462   1.307       .  A
O1442      C1457   1.293       .  A
O1443      C1460   1.285       .  A
O1444     Zr1449   2.425       .  S
O1444      C1459   1.289       .  A
O1445     Zr1448   2.450   1_565  S
O1445      C1458   1.294       .  A
O1446     Zr1452   2.412   1_554  S
O1446      C1455   1.289       .  A
O1447     Zr1452   2.401   1_455  S
O1447      C1456   1.284       .  A
Zr1449     O1453   2.327       .  S
Zr1450     O1454   2.349   1_556  S
Zr1450     O1464   2.345       .  S
Zr1451     O1453   2.327       .  S
Zr1451     O1466   2.355   1_556  S
Zr1452     O1453   2.330       .  S
Zr1452     O1466   2.338   1_556  S
C1455      C1519   1.491       .  S
C1456      C1614   1.466       .  S
C1457      C1474   1.471       .  S
C1458      C1491   1.484       .  S
C1459      C1586   1.496       .  S
C1460      C1600   1.482       .  S
C1461      C1572   1.523       .  S
C1462      C1558   1.527       .  S
H1463      O1464   0.965       .  S
H1465      O1466   0.966       .  S
C1467      C1544   1.557       .  S
C1467      C1561   1.564   1_554  S
C1467      C1468   1.407       .  D
C1468      C1533   1.562   1_554  S
C1468      C1575   1.568       .  S
C1469      C1505   1.550       .  S
C1469      C1516   1.569       .  S
C1469      C1771   1.586   1_455  S
C1470      C1477   1.577       .  S
C1470      C1488   1.571       .  S
C1470      C1785   1.579       .  S
C1471      C1617   1.563       .  S
C1471      C1628   1.577       .  S
C1471      C1645   1.569       .  S
C1472      C1687   1.561       .  S
C1473      C1474   1.391   1_545  A
C1473      C1478   1.395       .  A
C1473      H1480   1.086       .  S
C1475      C1476   1.407       .  A
C1475      N1482   1.444       .  S
C1476      H1481   1.084       .  S
C1477      C1478   1.439   1_565  A
C1478      N1479   1.429       .  S
N1479      O1483   1.262       .  A
N1479      O1484   1.263       .  A
N1482      O1485   1.260       .  A
C1487      C1492   1.388       .  A
C1487      H1494   1.081       .  S
C1488      C1489   1.434       .  A
C1489      C1490   1.407       .  A
C1489      N1496   1.428       .  S
C1490      C1491   1.390       .  A
C1490      H1495   1.066       .  S
C1492      N1493   1.415       .  S
N1493      O1497   1.261       .  A
N1493      O1498   1.263       .  A
N1496      O1499   1.262       .  A
C1501      C1506   1.404       .  A
C1501      H1508   1.084       .  S
C1502      C1503   1.410   1_455  A
C1503      C1504   1.396       .  A
C1503      N1510   1.424       .  S
C1504      C1505   1.401   1_655  A
C1504      H1509   1.078       .  S
C1506      N1507   1.431       .  S
N1507      O1512   1.262       .  A
N1510      O1513   1.262       .  A
C1515      C1516   1.419       .  A
C1515      C1520   1.407       .  A
C1515      H1522   1.082       .  S
C1517      C1518   1.388       .  A
C1517      N1524   1.437       .  S
C1518      H1523   1.084       .  S
C1519      C1520   1.412   1_655  A
C1520      N1521   1.434       .  S
N1521      O1526   1.263   1_455  A
N1524      O1527   1.262       .  A
C1529      C1530   1.413       .  A
C1529      C1534   1.416       .  A
C1529      H1536   1.082       .  S
C1530      C1531   1.423       .  A
C1531      C1532   1.422       .  A
C1531      N1538   1.432       .  S
C1532      C1533   1.411       .  A
C1532      H1537   1.078       .  S
C1533      C1534   1.419       .  A
C1534      N1535   1.443       .  S
N1535      O1539   1.263       .  A
N1535      O1540   1.263       .  A
N1538      O1541   1.261       .  A
N1538      O1542   1.262       .  A
C1543      C1544   1.410       .  A
C1543      C1548   1.421       .  A
C1543      H1550   1.080       .  S
C1544      C1545   1.421       .  A
C1545      C1546   1.415       .  A
C1545      N1552   1.442       .  S
C1546      C1547   1.413       .  A
C1546      H1551   1.082       .  S
C1547      C1548   1.425       .  A
C1548      N1549   1.433       .  S
N1549      O1553   1.261       .  A
N1549      O1554   1.262       .  A
N1552      O1555   1.263       .  A
N1552      O1556   1.263       .  A
C1557      C1558   1.416       .  A
C1557      C1562   1.428       .  A
C1557      H1564   1.082       .  S
C1558      C1559   1.410       .  A
C1559      C1560   1.409       .  A
C1559      N1566   1.415   1_556  S
C1560      C1561   1.399       .  A
C1560      H1565   1.071       .  S
C1561      C1562   1.428       .  A
C1562      N1563   1.439       .  S
N1563      O1567   1.262       .  A
N1563      O1568   1.263       .  A
N1566      O1569   1.257       .  A
N1566      O1570   1.259   1_554  A
C1571      C1572   1.414       .  A
C1571      C1576   1.418       .  A
C1571      H1578   1.082       .  S
C1572      C1573   1.418       .  A
C1573      C1574   1.428       .  A
C1573      N1580   1.430       .  S
C1574      C1575   1.408       .  A
C1574      H1579   1.076       .  S
C1575      C1576   1.419       .  A
C1576      N1577   1.441       .  S
N1577      O1581   1.262       .  A
N1577      O1582   1.263       .  A
N1580      O1583   1.262       .  A
N1580      O1584   1.262       .  A
C1585      C1586   1.410       .  A
C1585      C1590   1.415       .  A
C1585      H1592   1.083       .  S
C1587      C1588   1.390       .  A
C1587      N1594   1.423       .  S
C1588      H1593   1.082       .  S
C1589      C1590   1.425       .  A
C1590      N1591   1.432       .  S
N1591      O1595   1.261       .  A
N1594      O1598   1.262       .  A
C1599      C1604   1.397       .  A
C1599      H1606   1.084       .  S
C1600      C1601   1.427       .  A
C1601      C1602   1.406       .  A
C1601      N1608   1.447       .  S
C1602      C1603   1.409       .  A
C1602      H1607   1.077       .  S
C1604      N1605   1.433       .  S
N1605      O1609   1.261       .  A
N1605      O1610   1.262       .  A
N1608      O1611   1.257       .  A
C1613      C1614   1.395   1_655  A
C1613      C1618   1.397       .  A
C1613      H1620   1.085       .  S
C1615      C1616   1.402       .  A
C1615      N1622   1.444       .  S
C1616      H1621   1.078       .  S
C1617      C1618   1.430       .  A
C1618      N1619   1.431       .  S
N1619      O1623   1.261       .  A
N1619      O1624   1.261       .  A
N1622      O1625   1.262       .  A
N1622      O1626   1.263       .  A
C1627      C1632   1.405       .  A
C1627      H1634   1.082       .  S
C1628      C1629   1.435       .  A
C1629      C1630   1.405       .  A
C1629      N1636   1.427       .  S
C1630      C1631   1.396   1_655  A
C1630      H1635   1.085       .  S
C1632      N1633   1.444       .  S
N1633      O1637   1.263       .  A
N1633      O1638   1.262       .  A
N1636      O1639   1.261       .  A
N1636      O1640   1.260       .  A
C1641      C1642   1.398       .  A
C1641      C1646   1.408       .  A
C1641      H1648   1.085       .  S
C1642      C1643   1.408       .  A
C1643      C1644   1.394       .  A
C1643      N1650   1.438       .  S
C1644      C1645   1.418       .  A
C1644      H1649   1.083       .  S
C1645      C1646   1.442       .  A
C1646      N1647   1.438       .  S
N1647      O1651   1.263       .  A
N1647      O1652   1.261       .  A
N1650      O1653   1.257       .  A
N1650      O1654   1.263       .  A
C1655      C1656   1.391       .  A
C1655      C1660   1.398       .  A
C1655      H1662   1.085       .  S
C1656      C1657   1.406       .  A
C1657      C1658   1.403       .  A
C1657      N1664   1.438       .  S
C1658      C1659   1.422       .  A
C1658      H1663   1.076       .  S
C1659      C1660   1.433       .  A
C1660      N1661   1.426       .  S
N1661      O1665   1.262       .  A
N1664      O1667   1.262       .  A
N1664      O1668   1.263       .  A
C1669      C1670   1.395       .  A
C1669      C1674   1.393       .  A
C1669      H1676   1.084       .  S
C1670      C1671   1.416       .  A
C1671      C1672   1.408       .  A
C1671      N1678   1.435       .  S
C1672      C1673   1.417       .  A
C1672      H1677   1.082       .  S
C1673      C1674   1.441       .  A
C1674      N1675   1.432       .  S
N1675      O1679   1.263       .  A
N1675      O1680   1.260       .  A
N1678      O1681   1.263       .  A
N1678      O1682   1.262       .  A
C1683      C1684   1.387       .  A
C1683      C1688   1.389       .  A
C1683      H1690   1.082       .  S
C1684      C1685   1.412       .  A
C1685      C1686   1.409       .  A
C1685      N1692   1.443       .  S
C1686      C1687   1.414       .  A
C1686      H1691   1.072       .  S
C1687      C1688   1.435       .  A
C1688      N1689   1.430       .  S
N1689      O1693   1.260       .  A
N1689      O1694   1.262       .  A
N1692      O1695   1.261       .  A
N1692      O1696   1.261       .  A
C1697      C1698   1.396       .  A
C1697      C1702   1.385       .  A
C1697      H1704   1.085       .  S
C1698      C1699   1.423       .  A
C1699      C1700   1.411       .  A
C1699      N1706   1.436       .  S
C1700      C1701   1.406       .  A
C1700      H1705   1.078       .  S
C1701      C1702   1.425       .  A
C1702      N1703   1.424       .  S
N1703      O1707   1.260       .  A
N1706      O1709   1.262       .  A
N1706      O1710   1.263       .  A
C1711      C1712   1.408       .  A
C1711      C1716   1.413       .  A
C1711      H1718   1.083       .  S
C1712      C1713   1.416       .  A
C1713      C1714   1.384       .  A
C1713      N1720   1.440       .  S
C1714      C1715   1.405       .  A
C1714      H1719   1.082       .  S
C1715      C1716   1.423       .  A
C1716      N1717   1.440       .  S
N1717      O1721   1.262       .  A
N1717      O1722   1.262       .  A
N1720      O1723   1.263       .  A
N1720      O1724   1.262       .  A
C1725      C1726   1.401       .  A
C1725      C1730   1.402       .  A
C1725      H1732   1.084       .  S
C1726      C1727   1.408       .  A
C1727      C1728   1.397       .  A
C1727      N1734   1.430       .  S
C1728      C1729   1.405       .  A
C1728      H1733   1.078       .  S
C1729      C1730   1.419       .  A
C1730      N1731   1.431       .  S
N1731      O1735   1.262   1_565  A
N1734      O1737   1.262       .  A
N1734      O1738   1.263       .  A
C1739      C1740   1.400       .  A
C1739      C1744   1.391       .  A
C1739      H1746   1.079       .  S
C1740      C1741   1.414       .  A
C1741      C1742   1.399       .  A
C1741      N1748   1.444       .  S
C1742      C1743   1.402       .  A
C1742      H1747   1.084       .  S
C1743      C1744   1.407       .  A
C1744      N1745   1.432       .  S
N1745      O1749   1.261       .  A
N1745      O1750   1.261       .  A
N1748      O1751   1.263       .  A
N1748      O1752   1.262       .  A
C1753      C1754   1.391       .  A
C1753      C1758   1.397       .  A
C1753      H1760   1.076       .  S
C1754      C1755   1.420       .  A
C1755      C1756   1.412       .  A
C1755      N1762   1.436       .  S
C1756      C1757   1.412       .  A
C1756      H1761   1.079       .  S
C1757      C1758   1.430       .  A
C1758      N1759   1.431       .  S
N1759      O1763   1.262       .  A
N1762      O1765   1.260       .  A
N1762      O1766   1.263       .  A
C1767      C1768   1.400       .  A
C1767      C1772   1.409       .  A
C1767      H1774   1.084       .  S
C1768      C1769   1.403       .  A
C1769      C1770   1.389       .  A
C1769      N1776   1.425       .  S
C1770      C1771   1.418       .  A
C1770      H1775   1.080   1_655  S
C1771      C1772   1.432       .  A
C1772      N1773   1.426       .  S
N1773      O1777   1.262       .  A
N1773      O1778   1.262       .  A
N1776      O1779   1.262       .  A
N1776      O1780   1.262       .  A
C1781      C1782   1.397       .  A
C1781      C1786   1.407       .  A
C1781      H1788   1.085       .  S
C1782      C1783   1.413       .  A
C1783      C1784   1.402       .  A
C1783      N1790   1.439       .  S
C1784      C1785   1.418       .  A
C1784      H1789   1.082       .  S
C1785      C1786   1.437       .  A
C1786      N1787   1.432       .  S
N1787      O1791   1.263       .  A
N1787      O1792   1.262       .  A
N1790      O1793   1.259       .  A
N1790      O1794   1.263       .  A
C1795      C1796   1.415       .  A
C1795      C1800   1.404       .  A
C1795      H1802   1.082       .  S
C1796      C1797   1.437       .  A
C1797      C1798   1.395       .  A
C1797      N1804   1.430       .  S
C1798      C1799   1.390       .  A
C1798      H1803   1.085       .  S
C1799      C1800   1.417       .  A
C1800      N1801   1.449       .  S
N1801      O1805   1.263       .  A
N1801      O1806   1.261       .  A
N1804      O1807   1.263       .  A
N1804      O1808   1.262       .  A
