geometry optimzed in LAMMPS
_audit_creation_date              2020-11-30 
_audit_creation_method            'lammps2cif' 
_symmetry_space_group_name_H-M    'P1' 
_symmetry_Int_Tables_number       1 
_symmetry_cell_setting            triclinic 
loop_ 
_symmetry_equiv_pos_as_xyz 
  x,y,z 
_cell_length_a                    46.37245078779129 
_cell_length_b                    46.57154854766743 
_cell_length_c                    46.243081135717965 
_cell_angle_alpha                 89.94094424131742 
_cell_angle_beta                  89.79296981404404 
_cell_angle_gamma                 90.09757011574996 
loop_ 
_atom_site_label 
_atom_site_type_symbol 
_atom_site_fract_x 
_atom_site_fract_y 
_atom_site_fract_z 
_atom_site_charge 
O1          O  0.29808849  0.91009580  0.71199246    -0.80910
O2          O  0.40186754  0.88918545  0.74556738    -0.80930
O3          O  0.34716458  0.81853037  0.70980178    -0.80940
O4          O  0.38017873  0.94725246  0.70944131    -0.80880
O5          O  0.36487062  0.84804848  0.73970536    -0.81000
O6          O  0.35164501  0.91954556  0.73482251    -0.80920
O7          O  0.42831245  0.91641937  0.71821881    -0.80910
O8          O  0.31538023  0.86642483  0.71918782    -0.80950
C9          C  0.29789092  0.88684225  0.72621596     1.08780
C10         C  0.42311325  0.90541068  0.74289322     1.08670
C11         C  0.35612015  0.82318945  0.73508014     1.08800
C12         C  0.36610199  0.94265340  0.73242763     1.08680
O13         O  0.33772190  0.93658035  0.67725405    -0.80910
O14         O  0.39749203  0.82455053  0.68977287    -0.80990
O15         O  0.30864626  0.83823706  0.66857307    -0.80920
O16         O  0.42528799  0.89418999  0.66000785    -0.80900
O17         O  0.43659392  0.86705521  0.69757228    -0.80950
O18         O  0.31694736  0.88474831  0.66207561    -0.80920
O19         O  0.37558572  0.92843264  0.65024044    -0.80880
O20         O  0.36734228  0.83694987  0.65473395    -0.80950
Co21       Co  0.33625770  0.90041310  0.69959678     1.51530
Co22       Co  0.39898186  0.85830113  0.71755970     1.51690
Co23       Co  0.34248342  0.85456215  0.68477328     1.51570
Co24       Co  0.40041653  0.91899456  0.68404915     1.51470
O25         O  0.37488634  0.88326931  0.69325604    -1.42840
C26         C  0.35369141  0.94363495  0.65619635     1.08710
C27         C  0.38618825  0.81990026  0.66491592     1.08800
C28         C  0.30128303  0.86216869  0.65763856     1.08740
C29         C  0.44342541  0.87913631  0.67376209     1.08710
O30         O  0.21559704  0.88614084  0.84145846    -0.80910
O31         O  0.15028370  0.82866108  0.92840721    -0.80930
O32         O  0.21595450  0.83110715  0.87918229    -0.80940
O33         O  0.14603045  0.87601044  0.84324369    -0.80880
O34         O  0.20927535  0.82354083  0.92575528    -0.81000
O35         O  0.16734165  0.91731353  0.84250687    -0.80920
O36         O  0.13736968  0.83572704  0.88301810    -0.80910
O37         O  0.25572549  0.87122758  0.86130360    -0.80950
C38         C  0.24213749  0.87845334  0.83866731     1.08780
C39         C  0.14048942  0.81938098  0.90438702     1.08670
C40         C  0.21931938  0.81530460  0.90135730     1.08800
C41         C  0.15380170  0.89786901  0.82921141     1.08680
O42         O  0.17548173  0.93457622  0.90181697    -0.80910
O43         O  0.21365746  0.88230975  0.94917726    -0.80990
O44         O  0.23457081  0.91411907  0.89582394    -0.80920
O45         O  0.11965731  0.87719044  0.92704970    -0.80900
O46         O  0.15856539  0.88838566  0.94994014    -0.80950
O47         O  0.21767012  0.94107832  0.86066451    -0.80920
O48         O  0.13274566  0.92188128  0.88604056    -0.80880
O49         O  0.24641490  0.86427563  0.92126989    -0.80950
Co50       Co  0.19560802  0.90918998  0.87426554     1.51530
Co51       Co  0.18256719  0.85703321  0.93626996     1.51690
Co52       Co  0.22220205  0.87245864  0.88543271     1.51570
Co53       Co  0.13681407  0.87766452  0.88554192     1.51470
O54         O  0.18019315  0.87574939  0.89682976    -1.42840
C55         C  0.15022117  0.94152052  0.89450034     1.08710
C56         C  0.23907928  0.87414497  0.94578509     1.08800
C57         C  0.23520100  0.93754827  0.88108709     1.08740
C58         C  0.13197372  0.88500744  0.95041709     1.08710
O59         O  0.37167181  0.76428568  0.85765918    -0.80910
O60         O  0.32951738  0.64949029  0.88359215    -0.80930
O61         O  0.41198483  0.67361042  0.83801931    -0.80940
O62         O  0.32268738  0.72280616  0.92271868    -0.80880
O63         O  0.36992144  0.65363160  0.84178002    -0.81000
O64         O  0.32890914  0.72711560  0.87553194    -0.80920
O65         O  0.32484609  0.66478978  0.92863235    -0.80910
O66         O  0.38017444  0.72343048  0.83606144    -0.80950
C67         C  0.37444553  0.75052734  0.83447829     1.08780
C68         C  0.31383211  0.65549769  0.90516518     1.08670
C69         C  0.39145017  0.66027923  0.82650320     1.08800
C70         C  0.31359749  0.73146889  0.89811954     1.08680
O71         O  0.36481142  0.75582155  0.91355630    -0.80910
O72         O  0.41648714  0.64053798  0.88377610    -0.80990
O73         O  0.43695403  0.72410865  0.85101501    -0.80920
O74         O  0.38543242  0.66998351  0.94831751    -0.80900
O75         O  0.37166562  0.63148431  0.92602341    -0.80950
O76         O  0.41455673  0.74168311  0.88854843    -0.80920
O77         O  0.38267227  0.72669172  0.94488104    -0.80880
O78         O  0.43279544  0.68369280  0.89417539    -0.80950
Co79       Co  0.37158764  0.73066454  0.88013204     1.51530
Co80       Co  0.37208933  0.64655763  0.88426576     1.51690
Co81       Co  0.40546811  0.70342887  0.86800658     1.51570
Co82       Co  0.35543624  0.69560288  0.93398704     1.51470
O83         O  0.37306865  0.68989441  0.89398147    -1.42840
C84         C  0.37626963  0.75186100  0.93768873     1.08710
C85         C  0.43776547  0.65726121  0.89001457     1.08800
C86         C  0.43582480  0.74296815  0.87063311     1.08740
C87         C  0.37997432  0.64370152  0.94918351     1.08710
O88         O  0.31675236  0.04836225  0.88779924    -0.80910
O89         O  0.39121947  0.09252109  0.94868537    -0.80930
O90         O  0.38966220  0.02394944  0.92991798    -0.80940
O91         O  0.32801646  0.12546040  0.88967695    -0.80880
O92         O  0.39151201  0.06497117  0.95181012    -0.81000
O93         O  0.31982776  0.09477518  0.85401525    -0.80920
O94         O  0.37489299  0.13289126  0.92766140    -0.80910
O95         O  0.34694302  0.01453047  0.89574331    -0.80950
C96         C  0.32139139  0.02320579  0.89622258     1.08780
C97         C  0.38119506  0.11829132  0.95028950     1.08670
C98         C  0.38826281  0.03804163  0.95316259     1.08800
C99         C  0.31092933  0.11410969  0.87142347     1.08680
O100        O  0.37842289  0.07895743  0.83604690    -0.80910
O101        O  0.44152146  0.05691771  0.92382936    -0.80990
O102        O  0.37899196  0.02691619  0.84421922    -0.80920
O103        O  0.41364697  0.12610345  0.87562135    -0.80900
O104        O  0.42804261  0.10889832  0.91626174    -0.80950
O105        O  0.33461960  0.03932029  0.83196429    -0.80920
O106        O  0.36623907  0.12324667  0.84137670    -0.80880
O107        O  0.42454117  0.04683344  0.88078109    -0.80950
Co108      Co  0.34818202  0.06352806  0.86274294     1.51530
Co109      Co  0.40540927  0.07346343  0.91209594     1.51690
Co110      Co  0.38352080  0.03465866  0.88806010     1.51570
Co111      Co  0.37082149  0.12368191  0.88466723     1.51470
O112        O  0.36833221  0.07954052  0.89471556    -1.42840
C113        C  0.37451447  0.10321558  0.82509235     1.08710
C114        C  0.44415554  0.04372349  0.89985833     1.08800
C115        C  0.35701858  0.02428394  0.82740541     1.08740
C116        C  0.43354958  0.12264557  0.89373183     1.08710
O117        O  0.38674370  0.83836319  0.04351901    -0.80910
O118        O  0.43041070  0.87597202  0.09345523    -0.80930
O119        O  0.41096151  0.89595427  0.03169032    -0.80940
O120        O  0.37066057  0.83960116  0.13935633    -0.80880
O121        O  0.44004504  0.92230352  0.05908376    -0.81000
O122        O  0.39037572  0.82900513  0.09915204    -0.80920
O123        O  0.41370136  0.88406786  0.13712809    -0.80910
O124        O  0.36386828  0.86829951  0.01663834    -0.80950
C125        C  0.37746530  0.84497673  0.01901611     1.08780
C126        C  0.43477852  0.87821504  0.12026890     1.08670
C127        C  0.43535736  0.90866003  0.03592090     1.08800
C128        C  0.38045982  0.82035268  0.12246537     1.08680
O129        O  0.32727287  0.84029676  0.10621876    -0.80910
O130        O  0.38509181  0.94089538  0.05592647    -0.80990
O131        O  0.32606508  0.90008489  0.05325914    -0.80920
O132        O  0.36709954  0.92586095  0.12827848    -0.80900
O133        O  0.40931291  0.93309555  0.10853152    -0.80950
O134        O  0.32492728  0.85278828  0.04989919    -0.80920
O135        O  0.32860243  0.88320417  0.12664981    -0.80880
O136        O  0.36410693  0.92619606  0.01562824    -0.80950
Co137      Co  0.35866965  0.84153595  0.07518482     1.51530
Co138      Co  0.40634031  0.90555899  0.07517868     1.51690
Co139      Co  0.36800537  0.89967602  0.04618777     1.51570
Co140      Co  0.37038095  0.88339095  0.13011361     1.51470
O141        O  0.37225096  0.88114544  0.08505107    -1.42840
C142        C  0.31511970  0.86073737  0.12001843     1.08710
C143        C  0.37415128  0.94643205  0.03073561     1.08800
C144        C  0.31330027  0.87722139  0.04538701     1.08740
C145        C  0.38731963  0.94270117  0.12170304     1.08710
O146        O  0.53112254  0.90256087  0.83119683    -0.80910
O147        O  0.58322469  0.94088001  0.87085582    -0.80930
O148        O  0.52147866  0.93184854  0.88366923    -0.80940
O149        O  0.62519596  0.88001923  0.83874567    -0.80880
O150        O  0.54833091  0.95522029  0.91528404    -0.81000
O151        O  0.58696903  0.90145484  0.82554349    -0.80920
O152        O  0.62408238  0.92280150  0.88487095    -0.80910
O153        O  0.50016259  0.88268333  0.85893220    -0.80950
C154        C  0.50554779  0.89538664  0.83560824     1.08780
C155        C  0.60913848  0.94462734  0.87761349     1.08670
C156        C  0.52794349  0.95529487  0.89734674     1.08800
C157        C  0.61023881  0.89079320  0.81832986     1.08680
O158        O  0.58856391  0.83812471  0.83838884    -0.80910
O159        O  0.53574752  0.90243825  0.93443560    -0.80990
O160        O  0.52874298  0.84569276  0.89684465    -0.80920
O161        O  0.60755652  0.87647922  0.92485020    -0.80900
O162        O  0.59128444  0.92004003  0.92986155    -0.80950
O163        O  0.53212318  0.84057695  0.84933091    -0.80920
O164        O  0.60682125  0.83900978  0.88232077    -0.80880
O165        O  0.49417277  0.89062783  0.91448130    -0.80950
Co166      Co  0.56014476  0.87188600  0.83762210     1.51530
Co167      Co  0.56044186  0.91995162  0.90017003     1.51690
Co168      Co  0.52780977  0.88768344  0.89187127     1.51570
Co169      Co  0.61323515  0.88013428  0.88247014     1.51470
O170        O  0.56862946  0.88476274  0.87749770    -1.42840
C171        C  0.59982925  0.82536885  0.86009562     1.08710
C172        C  0.50812818  0.89836162  0.93646147     1.08800
C173        C  0.52439107  0.83097263  0.87408370     1.08740
C174        C  0.60183754  0.89756812  0.94071019     1.08710
O175        O  0.86295362  0.33291161  0.72434300    -0.80910
O176        O  0.89493321  0.45247227  0.70434202    -0.80930
O177        O  0.90516943  0.37736464  0.73796777    -0.80940
O178        O  0.83187076  0.38747266  0.73604208    -0.80880
O179        O  0.93134232  0.40783411  0.71255347    -0.81000
O180        O  0.81345559  0.35560758  0.70756132    -0.80920
O181        O  0.86642582  0.43106976  0.73473587    -0.80910
O182        O  0.90864441  0.32172298  0.71960512    -0.80950
C183        C  0.88498642  0.31807843  0.73258074     1.08780
C184        C  0.88107221  0.45248488  0.72778856     1.08670
C185        C  0.92605440  0.39469340  0.73620826     1.08800
C186        C  0.81338844  0.36856466  0.73142829     1.08680
O187        O  0.83154805  0.36908377  0.65076922    -0.80910
O188        O  0.91994284  0.39029074  0.65210141    -0.80990
O189        O  0.88579810  0.32971748  0.66679802    -0.80920
O190        O  0.84626004  0.44808670  0.67752063    -0.80900
O191        O  0.88098572  0.43348000  0.64793154    -0.80950
O192        O  0.84073972  0.31568758  0.67380959    -0.80920
O193        O  0.80989649  0.40160822  0.67822226    -0.80880
O194        O  0.93393918  0.36111853  0.68571351    -0.80950
Co195      Co  0.85072200  0.35311485  0.68543142     1.51530
Co196      Co  0.90484540  0.41866863  0.67934118     1.51690
Co197      Co  0.89436434  0.35594864  0.70273360     1.51570
Co198      Co  0.84026825  0.41557473  0.70612243     1.51470
O199        O  0.87202365  0.39086822  0.69078679    -1.42840
C200        C  0.81011818  0.38526463  0.65607235     1.08710
C201        C  0.93887175  0.37414104  0.66227306     1.08800
C202        C  0.86567534  0.31043565  0.66394980     1.08740
C203        C  0.86126685  0.45098394  0.65448622     1.08710
O204        O  0.86538343  0.26613834  0.86017047    -0.80910
O205        O  0.82465046  0.15006867  0.88077420    -0.80930
O206        O  0.90819485  0.17421744  0.84009162    -0.80940
O207        O  0.81681120  0.22103844  0.92128436    -0.80880
O208        O  0.86479925  0.15684518  0.84102554    -0.81000
O209        O  0.82439049  0.22647184  0.87459784    -0.80920
O210        O  0.81894431  0.16213422  0.92641878    -0.80910
O211        O  0.88221451  0.22623374  0.83989135    -0.80950
C212        C  0.87401239  0.25276566  0.83796873     1.08780
C213        C  0.80923771  0.15134968  0.90299408     1.08670
C214        C  0.88716720  0.16304490  0.82705132     1.08800
C215        C  0.80844382  0.23020819  0.89652540     1.08680
O216        O  0.85896065  0.25570312  0.91759205    -0.80910
O217        O  0.90969403  0.13915472  0.88291274    -0.80990
O218        O  0.93619906  0.21986584  0.85796506    -0.80920
O219        O  0.87930171  0.16804934  0.94666977    -0.80900
O220        O  0.86493612  0.13011855  0.92414212    -0.80950
O221        O  0.90962767  0.24342648  0.88981225    -0.80920
O222        O  0.87617103  0.22329385  0.94591126    -0.80880
O223        O  0.92679145  0.17975793  0.89925866    -0.80950
Co224      Co  0.86629868  0.23172171  0.88162938     1.51530
Co225      Co  0.86625007  0.14693719  0.88275466     1.51690
Co226      Co  0.90291095  0.20246941  0.87232708     1.51570
Co227      Co  0.84910348  0.19338036  0.93316123     1.51470
O228        O  0.86792874  0.19002014  0.89398364    -1.42840
C229        C  0.86914586  0.24883154  0.94196253     1.08710
C230        C  0.93103386  0.15388560  0.89215637     1.08800
C231        C  0.93309500  0.24100790  0.87458646     1.08740
C232        C  0.87356597  0.14203116  0.94740856     1.08710
O233        O  0.72229914  0.39175929  0.83197951    -0.80910
O234        O  0.66072984  0.33216633  0.92034519    -0.80930
O235        O  0.71106332  0.33337775  0.87616485    -0.80940
O236        O  0.62391737  0.38870161  0.84586201    -0.80880
O237        O  0.71794118  0.33513108  0.92196830    -0.81000
O238        O  0.66608749  0.37991330  0.83004740    -0.80920
O239        O  0.64108649  0.34013333  0.87751998    -0.80910
O240        O  0.75306464  0.36507302  0.85633920    -0.80950
C241        C  0.74535883  0.37603974  0.83285237     1.08780
C242        C  0.64847808  0.32310253  0.89734104     1.08670
C243        C  0.72250483  0.32245410  0.89822726     1.08800
C244        C  0.64026721  0.38474630  0.82456851     1.08680
O245        O  0.65090691  0.43541851  0.85861940    -0.80910
O246        O  0.71542704  0.39430457  0.94307116    -0.80990
O247        O  0.73832704  0.41380925  0.88002734    -0.80920
O248        O  0.62287001  0.36929764  0.92819780    -0.80900
O249        O  0.65827852  0.39086840  0.94806992    -0.80950
O250        O  0.70584716  0.44400659  0.86825017    -0.80920
O251        O  0.62776984  0.42091317  0.89777186    -0.80880
O252        O  0.74562071  0.37694307  0.91166450    -0.80950
Co253      Co  0.68575217  0.41056419  0.85146412     1.51530
Co254      Co  0.68727221  0.36542274  0.93042902     1.51690
Co255      Co  0.72003494  0.37503890  0.87663486     1.51570
Co256      Co  0.63505669  0.38030974  0.88746428     1.51470
O257        O  0.68103907  0.38680372  0.89095518    -1.42840
C258        C  0.63372126  0.44022417  0.87949412     1.08710
C259        C  0.74098891  0.38918589  0.93565326     1.08800
C260        C  0.73084346  0.43932480  0.87646368     1.08740
C261        C  0.63425167  0.37905776  0.95081209     1.08710
O262        O  0.03495777  0.38831372  0.83008483    -0.80910
O263        O  0.08795244  0.43747880  0.87153511    -0.80930
O264        O  0.03478282  0.43769677  0.87425407    -0.80940
O265        O  0.11824201  0.38875927  0.83885912    -0.80880
O266        O  0.05320762  0.45522139  0.91522207    -0.81000
O267        O  0.08641033  0.35537309  0.82666712    -0.80920
O268        O  0.12950397  0.42424024  0.88563125    -0.80910
O269        O  0.99668170  0.39733281  0.85656505    -0.80950
C270        C  0.00755711  0.39418507  0.83164699     1.08780
C271        C  0.11316535  0.44425181  0.87745127     1.08670
C272        C  0.03763322  0.45858902  0.89275595     1.08800
C273        C  0.10699005  0.37239208  0.82038827     1.08680
O274        O  0.07310131  0.32825343  0.88110644    -0.80910
O275        O  0.04819878  0.40186734  0.93862932    -0.80990
O276        O  0.01909101  0.35080975  0.88138306    -0.80920
O277        O  0.12197164  0.37634902  0.92260516    -0.80900
O278        O  0.10080541  0.41834214  0.93209788    -0.80950
O279        O  0.03183918  0.33166744  0.83947715    -0.80920
O280        O  0.11906375  0.33877714  0.87536225    -0.80880
O281        O  0.00989634  0.39775039  0.91307759    -0.80950
Co282      Co  0.05615605  0.35930410  0.85750661     1.51530
Co283      Co  0.06755161  0.41900736  0.90440186     1.51690
Co284      Co  0.03184910  0.39296789  0.87659964     1.51570
Co285      Co  0.11924517  0.38202094  0.88077098     1.51470
O286        O  0.07462920  0.38437526  0.88675801    -1.42840
C287        C  0.09896674  0.32040515  0.87843919     1.08710
C288        C  0.02137118  0.39930970  0.93749270     1.08800
C289        C  0.01560708  0.33160805  0.86170200     1.08740
C290        C  0.11468372  0.39595619  0.94014428     1.08710
O291        O  0.84876404  0.33690580  0.04639572    -0.80910
O292        O  0.93393137  0.39779376  0.08490340    -0.80930
O293        O  0.91547401  0.38814007  0.01275477    -0.80940
O294        O  0.87901651  0.33930146  0.12479257    -0.80880
O295        O  0.93491262  0.39996801  0.05486731    -0.81000
O296        O  0.83642183  0.33486256  0.10329586    -0.80920
O297        O  0.91862132  0.38470462  0.12891595    -0.80910
O298        O  0.89580630  0.34349280  0.04538419    -0.80950
C299        C  0.87385600  0.32878966  0.03824826     1.08780
C300        C  0.93900619  0.38926290  0.11091670     1.08670
C301        C  0.93761402  0.39488679  0.02715222     1.08800
C302        C  0.85852701  0.32374607  0.11528451     1.08680
O303        O  0.81578714  0.39519212  0.09964634    -0.80910
O304        O  0.91426252  0.45027851  0.05546258    -0.80990
O305        O  0.85764295  0.37900735  0.01418229    -0.80920
O306        O  0.86931841  0.42450449  0.13525693    -0.80900
O307        O  0.90520186  0.43884040  0.10830477    -0.80950
O308        O  0.82681606  0.39608297  0.04439077    -0.80920
O309        O  0.83218701  0.37716941  0.13900280    -0.80880
O310        O  0.87892206  0.42803151  0.03398341    -0.80950
Co311      Co  0.83362906  0.36703101  0.07411224     1.51530
Co312      Co  0.89667695  0.41716955  0.07279517     1.51690
Co313      Co  0.88915214  0.38535469  0.04360351     1.51570
Co314      Co  0.87516703  0.38165191  0.12896823     1.51470
O315        O  0.87198536  0.38364821  0.08410924    -1.42840
C316        C  0.81108015  0.38747760  0.12496710     1.08710
C317        C  0.89513244  0.45029361  0.03613690     1.08800
C318        C  0.83252537  0.38809014  0.01923455     1.08740
C319        C  0.88558735  0.44455874  0.12617560     1.08710
O320        O  0.82239018  0.54622450  0.88034018    -0.80910
O321        O  0.91411282  0.60855101  0.93148883    -0.80930
O322        O  0.89000876  0.51779119  0.91934134    -0.80940
O323        O  0.82599756  0.61960260  0.89266610    -0.80880
O324        O  0.90043397  0.55672266  0.94196956    -0.81000
O325        O  0.81945479  0.59309869  0.85431974    -0.80920
O326        O  0.86939266  0.62325609  0.92929855    -0.80910
O327        O  0.85136183  0.51108796  0.87903041    -0.80950
C328        C  0.82602209  0.51981106  0.88135020     1.08780
C329        C  0.89151915  0.61794873  0.94380850     1.08670
C330        C  0.89411701  0.53074094  0.94265622     1.08800
C331        C  0.80946611  0.60956889  0.87371857     1.08680
O332        O  0.87982649  0.58757583  0.83184835    -0.80910
O333        O  0.95040239  0.56413471  0.91406953    -0.80990
O334        O  0.88626929  0.53535461  0.83479936    -0.80920
O335        O  0.91087165  0.63467720  0.88310994    -0.80900
O336        O  0.92613623  0.59340527  0.86986369    -0.80950
O337        O  0.84088268  0.54581329  0.82367088    -0.80920
O338        O  0.86292571  0.62875390  0.84330223    -0.80880
O339        O  0.93252980  0.53901392  0.87754579    -0.80950
Co340      Co  0.85254839  0.56578635  0.85725761     1.51530
Co341      Co  0.91194233  0.57434829  0.90524534     1.51690
Co342      Co  0.88821649  0.53290062  0.87920186     1.51570
Co343      Co  0.86813357  0.62305026  0.88701668     1.51470
O344        O  0.87264087  0.57727737  0.89108449    -1.42840
C345        C  0.87099015  0.61151796  0.82373837     1.08710
C346        C  0.95390501  0.54575872  0.89426122     1.08800
C347        C  0.86458365  0.53369361  0.81721024     1.08740
C348        C  0.93163781  0.61924394  0.87407057     1.08710
O349        O  0.81515159  0.91041033  0.21588404    -0.80910
O350        O  0.94566109  0.86833970  0.21550906    -0.80930
O351        O  0.85940405  0.81979697  0.20659091    -0.80940
O352        O  0.91056591  0.94658851  0.22256489    -0.80880
O353        O  0.90372865  0.82808678  0.22048601    -0.81000
O354        O  0.86856056  0.92506304  0.23213814    -0.80920
O355        O  0.91246400  0.89153651  0.23723503    -0.80910
O356        O  0.83960822  0.87118381  0.22797978    -0.80950
C357        C  0.81955628  0.88957883  0.23319280     1.08780
C358        C  0.93728428  0.88115613  0.23771960     1.08670
C359        C  0.88023284  0.81466173  0.22324682     1.08800
C360        C  0.88825980  0.94402368  0.23839764     1.08680
O361        O  0.84964748  0.93827442  0.17487129    -0.80910
O362        O  0.90179695  0.82416662  0.15904666    -0.80990
O363        O  0.81111179  0.84498046  0.18443940    -0.80920
O364        O  0.94186102  0.91172826  0.18375831    -0.80900
O365        O  0.93804054  0.87268926  0.15624575    -0.80950
O366        O  0.82452814  0.88582361  0.16466905    -0.80920
O367        O  0.89572546  0.93788451  0.16715322    -0.80880
O368        O  0.85759918  0.83888888  0.14934372    -0.80950
Co369      Co  0.85045791  0.90182676  0.19726140     1.51530
Co370      Co  0.91958958  0.85024299  0.18727552     1.51690
Co371      Co  0.85048466  0.85691128  0.18762381     1.51570
Co372      Co  0.90259877  0.91331934  0.20131457     1.51470
O373        O  0.88704991  0.87995015  0.18379886    -1.42840
C374        C  0.87170194  0.94976243  0.16379522     1.08710
C375        C  0.87829843  0.82163496  0.14557425     1.08800
C376        C  0.80493083  0.86647507  0.16875863     1.08740
C377        C  0.95055523  0.89620235  0.16270325     1.08710
O378        O  0.92971206  0.72635508  0.34465328    -0.80910
O379        O  0.88538606  0.67492843  0.44345101    -0.80930
O380        O  0.85514404  0.75741579  0.40706700    -0.80940
O381        O  0.91860640  0.64353575  0.38515764    -0.80880
O382        O  0.87812304  0.72956644  0.43621998    -0.81000
O383        O  0.93118818  0.68885496  0.39042278    -0.80920
O384        O  0.87309286  0.63353598  0.42836443    -0.80910
O385        O  0.90373175  0.74699952  0.37880171    -0.80950
C386        C  0.92608433  0.74670171  0.36215248     1.08780
C387        C  0.87872598  0.64987260  0.44959785     1.08670
C388        C  0.86828113  0.75394045  0.43070915     1.08800
C389        C  0.93837275  0.66253088  0.38842571     1.08680
O390        O  0.91009635  0.67407572  0.33601110    -0.80910
O391        O  0.81726471  0.72085627  0.41818907    -0.80990
O392        O  0.85665679  0.76163063  0.34793295    -0.80920
O393        O  0.83298187  0.64341642  0.38278585    -0.80900
O394        O  0.82436804  0.66355434  0.42530239    -0.80950
O395        O  0.87474784  0.72100531  0.33098043    -0.80920
O396        O  0.87171492  0.64826529  0.34250063    -0.80880
O397        O  0.81999076  0.72165968  0.37095802    -0.80950
Co398      Co  0.90125600  0.70491174  0.36389046     1.51530
Co399      Co  0.85265981  0.69679562  0.42921420     1.51690
Co400      Co  0.86199385  0.73034085  0.37362590     1.51570
Co401      Co  0.87433493  0.64537877  0.38503044     1.51470
O402        O  0.86977265  0.69017573  0.38977321    -1.42840
C403        C  0.89074431  0.65815007  0.32600068     1.08710
C404        C  0.80566526  0.72685629  0.39386152     1.08800
C405        C  0.86539168  0.74685982  0.32662756     1.08740
C406        C  0.81618643  0.64973729  0.40300339     1.08710
O407        O  0.72474586  0.89491042  0.33310344    -0.80910
O408        O  0.65826468  0.83425080  0.42107817    -0.80930
O409        O  0.71240088  0.83398729  0.37177142    -0.80940
O410        O  0.62724471  0.89384281  0.34755096    -0.80880
O411        O  0.71494824  0.83015541  0.41822051    -0.81000
O412        O  0.66891798  0.88192558  0.33204472    -0.80920
O413        O  0.63722089  0.84452064  0.37946478    -0.80910
O414        O  0.75597576  0.86628641  0.35453443    -0.80950
C415        C  0.74766684  0.87939826  0.33228919     1.08780
C416        C  0.64389830  0.82669273  0.39876004     1.08670
C417        C  0.71958838  0.81911662  0.39348759     1.08800
C418        C  0.64326933  0.88730012  0.32659742     1.08680
O419        O  0.65505602  0.93846674  0.36011021    -0.80910
O420        O  0.72069605  0.88985824  0.44062463    -0.80990
O421        O  0.74231015  0.91431012  0.38313071    -0.80920
O422        O  0.62635574  0.87578442  0.43125661    -0.80900
O423        O  0.66527742  0.89422613  0.44649294    -0.80950
O424        O  0.71011486  0.94474383  0.37043992    -0.80920
O425        O  0.63442212  0.92625616  0.40081652    -0.80880
O426        O  0.74893158  0.86819170  0.41072238    -0.80950
Co427      Co  0.68896159  0.91235047  0.35319256     1.51530
Co428      Co  0.68924246  0.86427400  0.42922237     1.51690
Co429      Co  0.72331747  0.87512264  0.37646732     1.51570
Co430      Co  0.63663781  0.88514937  0.38958652     1.51470
O431        O  0.68365983  0.88671153  0.39106661    -1.42840
C432        C  0.64179781  0.94536584  0.38299451     1.08710
C433        C  0.74557428  0.88178116  0.43403806     1.08800
C434        C  0.73517340  0.94008568  0.37878802     1.08740
C435        C  0.64073070  0.88518238  0.45218240     1.08710
O436        O  0.04686738  0.88717047  0.32658624    -0.80910
O437        O  0.08079299  0.94275433  0.40345350    -0.80930
O438        O  0.01366753  0.91945303  0.39940423    -0.80940
O439        O  0.12128183  0.89104513  0.33959187    -0.80880
O440        O  0.05276081  0.94423563  0.40386911    -0.81000
O441        O  0.09310382  0.85496445  0.32589435    -0.80920
O442        O  0.12350687  0.92534371  0.38894204    -0.80910
O443        O  0.00921607  0.88733638  0.35334660    -0.80950
C444        C  0.02041901  0.89131768  0.32893541     1.08780
C445        C  0.10705724  0.94652754  0.39477816     1.08670
C446        C  0.02555625  0.94352942  0.40163696     1.08800
C447        C  0.11236520  0.87370184  0.32021604     1.08680
O448        O  0.07750684  0.82817642  0.38018389    -0.80910
O449        O  0.04527584  0.91423928  0.45168069    -0.80990
O450        O  0.02681553  0.83779541  0.38371830    -0.80920
O451        O  0.11896866  0.87222174  0.42547253    -0.80900
O452        O  0.09808189  0.91095999  0.43975212    -0.80950
O453        O  0.03629261  0.83036332  0.33759307    -0.80920
O454        O  0.12189471  0.84044036  0.37418704    -0.80880
O455        O  0.03586326  0.87176415  0.43373572    -0.80950
Co456      Co  0.06111763  0.85884587  0.35460086     1.51530
Co457      Co  0.06382354  0.90473178  0.41603562     1.51690
Co458      Co  0.02766170  0.88001364  0.39137570     1.51570
Co459      Co  0.11806337  0.88285970  0.38232108     1.51470
O460        O  0.07352070  0.88932637  0.37905653    -1.42840
C461        C  0.10333631  0.82084023  0.37738097     1.08710
C462        C  0.03194184  0.89045685  0.45371066     1.08800
C463        C  0.02036019  0.82572442  0.35969972     1.08740
C464        C  0.11227069  0.88913478  0.44590798     1.08710
O465        O  0.82928299  0.04112856  0.35272321    -0.80910
O466        O  0.91257489  0.10086547  0.43206744    -0.80930
O467        O  0.87282534  0.00644031  0.42316447    -0.80940
O468        O  0.82929602  0.11756792  0.38458622    -0.80880
O469        O  0.88774936  0.04846164  0.43974146    -0.81000
O470        O  0.82954757  0.09815353  0.34091169    -0.80920
O471        O  0.86863476  0.11678126  0.42853305    -0.80910
O472        O  0.83132193  0.04170140  0.40046082    -0.80950
C473        C  0.81828364  0.03473027  0.37744690     1.08780
C474        C  0.89075776  0.11224049  0.44351875     1.08670
C475        C  0.87989007  0.02213865  0.44436634     1.08800
C476        C  0.81650011  0.11118316  0.36129473     1.08680
O477        O  0.89107701  0.09531652  0.32694679    -0.80910
O478        O  0.94223143  0.05299520  0.42102580    -0.80990
O479        O  0.87001751  0.00954552  0.36424450    -0.80920
O480        O  0.91505226  0.13081097  0.38647710    -0.80900
O481        O  0.93135325  0.08823384  0.37450226    -0.80950
O482        O  0.89116032  0.03933738  0.33548241    -0.80920
O483        O  0.87192882  0.13404821  0.34355324    -0.80880
O484        O  0.91702871  0.02683167  0.39050629    -0.80950
Co485      Co  0.86142569  0.06890763  0.34060124     1.51530
Co486      Co  0.90858231  0.06838746  0.40445758     1.51690
Co487      Co  0.87364160  0.03778325  0.39721624     1.51570
Co488      Co  0.87148078  0.12204894  0.38595510     1.51470
O489        O  0.87460096  0.07779983  0.38054261    -1.42840
C490        C  0.88193969  0.12006290  0.32225917     1.08710
C491        C  0.94044156  0.03162757  0.40453220     1.08800
C492        C  0.88305987  0.01424016  0.34068818     1.08740
C493        C  0.93604731  0.11462238  0.37885361     1.08710
O494        O  0.84605286  0.82510715  0.54745821    -0.80910
O495        O  0.91764635  0.89318972  0.61542629    -0.80930
O496        O  0.91655442  0.89241313  0.52649587    -0.80940
O497        O  0.87006142  0.83643193  0.63375270    -0.80880
O498        O  0.94393181  0.89054503  0.56462124    -0.81000
O499        O  0.88621280  0.82771472  0.59058648    -0.80920
O500        O  0.91838578  0.86843076  0.65029119    -0.80910
O501        O  0.88823076  0.84372205  0.53676282    -0.80950
C502        C  0.86836989  0.82513454  0.53157124     1.08780
C503        C  0.93354924  0.88211736  0.63319087     1.08670
C504        C  0.94112938  0.88873316  0.53769007     1.08800
C505        C  0.87880202  0.81860580  0.61505954     1.08680
O506        O  0.82821217  0.85180236  0.59840411    -0.80910
O507        O  0.91250939  0.94171191  0.54958861    -0.80990
O508        O  0.86215282  0.88524673  0.50826976    -0.80920
O509        O  0.88193480  0.92177331  0.64529319    -0.80900
O510        O  0.89068870  0.94318534  0.60296492    -0.80950
O511        O  0.83325447  0.88071694  0.54564344    -0.80920
O512        O  0.83643860  0.88816728  0.62782970    -0.80880
O513        O  0.86803409  0.92811890  0.54679649    -0.80950
Co514      Co  0.86125366  0.85582196  0.57031491     1.51530
Co515      Co  0.91688867  0.91650502  0.58399598     1.51690
Co516      Co  0.87818095  0.88600873  0.54553009     1.51570
Co517      Co  0.87723144  0.87919967  0.63537397     1.51470
O518        O  0.88549231  0.88639710  0.58886084    -1.42840
C519        C  0.81950242  0.86995385  0.61701014     1.08710
C520        C  0.88728599  0.94642185  0.54052664     1.08800
C521        C  0.83668521  0.88399128  0.51799236     1.08740
C522        C  0.88311392  0.94405316  0.62912584     1.08710
O523        O  0.11189303  0.07089422  0.46353939    -0.80910
O524        O  0.13498650  0.18549584  0.48090050    -0.80930
O525        O  0.19539726  0.11371829  0.45428659    -0.80940
O526        O  0.07749144  0.15472778  0.47289744    -0.80880
O527        O  0.17877655  0.14819472  0.48181306    -0.81000
O528        O  0.07055072  0.10944055  0.46842860    -0.80920
O529        O  0.10011992  0.19852342  0.45208451    -0.80910
O530        O  0.15223792  0.08958712  0.47526691    -0.80950
C531        C  0.13331816  0.07124498  0.47991026     1.08780
C532        C  0.11489113  0.20250105  0.47467701     1.08670
C533        C  0.19828199  0.13048184  0.47569694     1.08800
C534        C  0.06556678  0.13238179  0.48153865     1.08680
O535        O  0.07622630  0.12587179  0.40584785    -0.80910
O536        O  0.18995468  0.15802598  0.42166729    -0.80990
O537        O  0.16661017  0.06902948  0.42118679    -0.80920
O538        O  0.11347795  0.17084155  0.39739712    -0.80900
O539        O  0.14517266  0.19660414  0.42079791    -0.80950
O540        O  0.12546213  0.08604541  0.40478796    -0.80920
O541        O  0.05901817  0.16813937  0.41931001    -0.80880
O542        O  0.16891558  0.12326201  0.39825348    -0.80950
Co543      Co  0.09914498  0.10207512  0.43648526     1.51530
Co544      Co  0.16001608  0.16976766  0.45100231     1.51690
Co545      Co  0.15682718  0.10617664  0.43615922     1.51570
Co546      Co  0.09601512  0.15926570  0.43473375     1.51470
O547        O  0.13017993  0.13707985  0.44738644    -1.42840
C548        C  0.05473892  0.14367891  0.40785073     1.08710
C549        C  0.18988081  0.14051091  0.40070322     1.08800
C550        C  0.14289420  0.06459382  0.40787147     1.08740
C551        C  0.12820741  0.19353051  0.39964594     1.08710
O552        O  0.65055898  0.06588516  0.31278668    -0.80910
O553        O  0.60639660  0.17954589  0.29493304    -0.80930
O554        O  0.57952579  0.12659812  0.28830257    -0.80940
O555        O  0.65380076  0.14467021  0.27901020    -0.80880
O556        O  0.55433444  0.15912898  0.31141961    -0.81000
O557        O  0.68323728  0.11270921  0.29799084    -0.80920
O558        O  0.65033044  0.19847422  0.29971854    -0.80910
O559        O  0.60862476  0.07654548  0.29339416    -0.80950
C560        C  0.63055924  0.06063111  0.29520287     1.08780
C561        C  0.62548926  0.19901102  0.28830402     1.08670
C562        C  0.55705481  0.14287334  0.28935928     1.08800
C563        C  0.67570889  0.12870484  0.27691234     1.08680
O564        O  0.68127792  0.12918172  0.35972174    -0.80910
O565        O  0.57021504  0.12351634  0.35473727    -0.80990
O566        O  0.60479128  0.07334480  0.35305942    -0.80920
O567        O  0.64018356  0.18282962  0.35432712    -0.80900
O568        O  0.59304926  0.18004050  0.35497351    -0.80950
O569        O  0.64751247  0.08261485  0.37099325    -0.80920
O570        O  0.68825954  0.16115224  0.32650052    -0.80880
O571        O  0.55666676  0.08833804  0.32558523    -0.80950
Co572      Co  0.66377782  0.09946740  0.33539842     1.51530
Co573      Co  0.59202721  0.14875546  0.32549081     1.51690
Co574      Co  0.59505563  0.10321746  0.32292709     1.51570
Co575      Co  0.64573749  0.16263518  0.31690321     1.51470
O576        O  0.63025984  0.12706362  0.33124515    -1.42840
C577        C  0.69814939  0.14587080  0.34682332     1.08710
C578        C  0.55104611  0.10489723  0.34696525     1.08800
C579        C  0.62561978  0.06653703  0.36947842     1.08740
C580        C  0.61607971  0.19235420  0.36294844     1.08710
O581        O  0.10998631  0.78215565  0.09506480    -0.80910
O582        O  0.11753043  0.77404591  0.17015293    -0.80930
O583        O  0.18593957  0.80162979  0.10632939    -0.80940
O584        O  0.06772355  0.79830888  0.14417085    -0.80880
O585        O  0.15892612  0.77156572  0.13022069    -0.81000
O586        O  0.05577115  0.80512952  0.09840421    -0.80920
O587        O  0.09396927  0.80634484  0.19373757    -0.80910
O588        O  0.14125001  0.80818330  0.07054171    -0.80950
C589        C  0.12768168  0.78482676  0.07420914     1.08780
C590        C  0.10161109  0.78055663  0.19127419     1.08670
C591        C  0.18098943  0.77626314  0.11539970     1.08800
C592        C  0.05217311  0.79181304  0.12197864     1.08680
O593        O  0.07300814  0.85479554  0.12537739    -0.80910
O594        O  0.18859796  0.82043763  0.15631356    -0.80990
O595        O  0.13158973  0.86649453  0.08850513    -0.80920
O596        O  0.11878268  0.85978608  0.18146660    -0.80900
O597        O  0.14570621  0.82372612  0.19587414    -0.80950
O598        O  0.09721636  0.83806202  0.07445311    -0.80920
O599        O  0.06139169  0.84945234  0.17195554    -0.80880
O600        O  0.17615937  0.85791456  0.13005521    -0.80950
Co601      Co  0.09270283  0.81696999  0.11187636     1.51530
Co602      Co  0.15135349  0.79826061  0.16153982     1.51690
Co603      Co  0.15685903  0.83395321  0.10109936     1.51570
Co604      Co  0.09499064  0.83178398  0.15883803     1.51470
O605        O  0.12899695  0.82209589  0.13368924    -1.42840
C606        C  0.05814288  0.86215381  0.14788135     1.08710
C607        C  0.19481752  0.84473119  0.14492789     1.08800
C608        C  0.11261372  0.86005846  0.06978973     1.08740
C609        C  0.13448059  0.84810263  0.20087244     1.08710
O610        O  0.07047357  0.61031289  0.29557156    -0.80910
O611        O  0.15847724  0.63282492  0.27761028    -0.80930
O612        O  0.09451224  0.69781716  0.30506835    -0.80940
O613        O  0.13287458  0.58169783  0.29123176    -0.80880
O614        O  0.12542884  0.67796438  0.27485007    -0.81000
O615        O  0.08805041  0.58989866  0.28704202    -0.80920
O616        O  0.18023239  0.60429981  0.30664953    -0.80910
O617        O  0.05687597  0.65389594  0.31186789    -0.80950
C618        C  0.05423437  0.63289632  0.29438940     1.08780
C619        C  0.17996615  0.61772168  0.28260169     1.08670
C620        C  0.10552978  0.69551043  0.27977680     1.08800
C621        C  0.11029813  0.57767557  0.27690610     1.08680
O622        O  0.09591238  0.56115754  0.33679698    -0.80910
O623        O  0.14683528  0.70053293  0.32735507    -0.80990
O624        O  0.07935815  0.64228374  0.36969287    -0.80920
O625        O  0.15951285  0.62125298  0.36267868    -0.80900
O626        O  0.18114379  0.65206328  0.33346826    -0.80950
O627        O  0.06136246  0.60651458  0.34729178    -0.80920
O628        O  0.14365298  0.56327427  0.34465413    -0.80880
O629        O  0.12021965  0.68272200  0.36163934    -0.80950
Co630      Co  0.10000547  0.60208535  0.32716707     1.51530
Co631      Co  0.15153282  0.66425698  0.30395594     1.51690
Co632      Co  0.08945240  0.66767304  0.33675039     1.51570
Co633      Co  0.14124591  0.60295595  0.32841864     1.51470
O634        O  0.11829201  0.64025902  0.31858092    -1.42840
C635        C  0.11945457  0.54919464  0.34517852     1.08710
C636        C  0.13455866  0.70335381  0.35165091     1.08800
C637        C  0.05807962  0.62588062  0.36601477     1.08740
C638        C  0.18138788  0.63685291  0.35648474     1.08710
O639        O  0.78410420  0.16411058  0.06975963    -0.80910
O640        O  0.76729778  0.12383375  0.16960584    -0.80930
O641        O  0.76504589  0.08347056  0.13480690    -0.80940
O642        O  0.79192654  0.19609352  0.15290863    -0.80880
O643        O  0.78465652  0.06831938  0.17565887    -0.81000
O644        O  0.76896239  0.16640044  0.12596710    -0.80920
O645        O  0.78904619  0.15539563  0.19605187    -0.80910
O646        O  0.76346881  0.12709851  0.09174158    -0.80950
C647        C  0.76369580  0.14584666  0.07133778     1.08780
C648        C  0.76676580  0.14043081  0.19091006     1.08670
C649        C  0.76581882  0.06553103  0.15603132     1.08800
C650        C  0.77020725  0.19048287  0.13779216     1.08680
O651        O  0.82205033  0.19323199  0.10687079    -0.80910
O652        O  0.83865181  0.07918265  0.15539853    -0.80990
O653        O  0.81732539  0.10590618  0.07120487    -0.80920
O654        O  0.85016832  0.14434339  0.18693973    -0.80900
O655        O  0.82016570  0.11047773  0.20060133    -0.80950
O656        O  0.83885933  0.14536268  0.08017744    -0.80920
O657        O  0.85103659  0.18521837  0.14341720    -0.80880
O658        O  0.82123317  0.06887278  0.11369088    -0.80950
Co659      Co  0.80392943  0.15416421  0.10387422     1.51530
Co660      Co  0.80333447  0.10216823  0.16132908     1.51690
Co661      Co  0.79500205  0.10149365  0.10764162     1.51570
Co662      Co  0.82046454  0.16722847  0.16745352     1.51470
O663        O  0.81742863  0.13318888  0.13684603    -1.42840
C664        C  0.84290280  0.20115621  0.12276608     1.08710
C665        C  0.83776360  0.06263882  0.13398401     1.08800
C666        C  0.83548651  0.12427373  0.06364024     1.08740
C667        C  0.84190278  0.12636438  0.20552769     1.08710
O668        O  0.77390737  0.58369162  0.62498870    -0.80910
O669        O  0.80019330  0.69751716  0.67040097    -0.80930
O670        O  0.76846743  0.62005316  0.67324701    -0.80940
O671        O  0.75876056  0.64109941  0.60342681    -0.80880
O672        O  0.79463493  0.64760050  0.70138450    -0.81000
O673        O  0.78406827  0.61380762  0.57622447    -0.80920
O674        O  0.76709514  0.67643039  0.64585081    -0.80910
O675        O  0.78768600  0.56538723  0.66630950    -0.80950
C676        C  0.77031692  0.56508029  0.64547385     1.08780
C677        C  0.77509298  0.69744434  0.66033649     1.08670
C678        C  0.77090915  0.63432489  0.69624709     1.08800
C679        C  0.76112610  0.62784109  0.58011153     1.08680
O680        O  0.84243782  0.62416627  0.58650194    -0.80910
O681        O  0.85453519  0.63305926  0.68269506    -0.80990
O682        O  0.83581275  0.57839046  0.63656192    -0.80920
O683        O  0.82011494  0.69902404  0.61867699    -0.80900
O684        O  0.85413077  0.68215337  0.64794487    -0.80950
O685        O  0.81981471  0.56989146  0.59209808    -0.80920
O686        O  0.81321920  0.65984048  0.57566025    -0.80880
O687        O  0.82284001  0.60077115  0.69302317    -0.80950
Co688      Co  0.81088872  0.60550171  0.60918048     1.51530
Co689      Co  0.82553851  0.66281111  0.67312452     1.51690
Co690      Co  0.80210670  0.60160796  0.65493355     1.51570
Co691      Co  0.79044544  0.66769362  0.61232465     1.51470
O692        O  0.81100773  0.63952929  0.63705937    -1.42840
C693        C  0.83426644  0.64349219  0.56875324     1.08710
C694        C  0.84532633  0.61440106  0.70005702     1.08800
C695        C  0.83373494  0.56163522  0.61416399     1.08740
C696        C  0.84514942  0.70088314  0.63008162     1.08710
O697        O  0.12971889  0.09595557  0.77873190    -0.80910
O698        O  0.11735094  0.17440035  0.77928989    -0.80930
O699        O  0.05527412  0.10186166  0.80480007    -0.80940
O700        O  0.16475937  0.14317402  0.78418092    -0.80880
O701        O  0.08229762  0.12794273  0.77740283    -0.81000
O702        O  0.18460421  0.10153654  0.79636535    -0.80920
O703        O  0.15163621  0.19768727  0.80211455    -0.80910
O704        O  0.10202066  0.06677387  0.80309185    -0.80950
C705        C  0.11506071  0.07304396  0.77983063     1.08780
C706        C  0.13348971  0.19688615  0.78165508     1.08670
C707        C  0.06015045  0.11323934  0.78038761     1.08800
C708        C  0.18464206  0.12387132  0.78053587     1.08680
O709        O  0.17064845  0.11712330  0.85142485    -0.80910
O710        O  0.05268666  0.14671520  0.83255196    -0.80990
O711        O  0.11315533  0.07557588  0.86350500    -0.80920
O712        O  0.13069687  0.18391343  0.85458923    -0.80900
O713        O  0.09003420  0.18980583  0.83294290    -0.80950
O714        O  0.14746837  0.06875759  0.83186112    -0.80920
O715        O  0.18291317  0.15987634  0.83945615    -0.80880
O716        O  0.06683204  0.11462643  0.86471926    -0.80950
Co717      Co  0.14905065  0.10870430  0.81498326     1.51530
Co718      Co  0.08768369  0.15683934  0.80707347     1.51690
Co719      Co  0.08674417  0.09269598  0.83424741     1.51570
Co720      Co  0.14435824  0.16126556  0.82058029     1.51470
O721        O  0.11486090  0.12831834  0.82874000    -1.42840
C722        C  0.18937039  0.13682545  0.85200722     1.08710
C723        C  0.04864300  0.13295504  0.85623229     1.08800
C724        C  0.13335421  0.05992095  0.85379745     1.08740
C725        C  0.10870473  0.19916331  0.84993485     1.08710
O726        O  0.61287312  0.27601982  0.09842641    -0.80910
O727        O  0.62815660  0.27527942  0.17669161    -0.80930
O728        O  0.68959335  0.30500138  0.10789892    -0.80940
O729        O  0.57200319  0.28706033  0.14819207    -0.80880
O730        O  0.66811191  0.27537055  0.13755618    -0.81000
O731        O  0.55659510  0.29243273  0.10340397    -0.80920
O732        O  0.59916586  0.30519582  0.19621897    -0.80910
O733        O  0.64284480  0.30245886  0.07237448    -0.80950
C734        C  0.62888582  0.27914219  0.07630059     1.08780
C735        C  0.61251746  0.28192670  0.19749965     1.08670
C736        C  0.68808818  0.28053907  0.12007454     1.08800
C737        C  0.55474865  0.27959092  0.12746356     1.08680
O738        O  0.56470679  0.34437490  0.12748923    -0.80910
O739        O  0.68998221  0.33035321  0.15705283    -0.80990
O740        O  0.62682825  0.36092616  0.08798121    -0.80920
O741        O  0.61199007  0.36083126  0.17509287    -0.80900
O742        O  0.64542291  0.33403784  0.19567416    -0.80950
O743        O  0.59418309  0.32929215  0.07637799    -0.80920
O744        O  0.55804812  0.33749634  0.17416389    -0.80880
O745        O  0.67422885  0.36232742  0.12605676    -0.80950
Co746      Co  0.59195785  0.30962424  0.11470325     1.51530
Co747      Co  0.65616039  0.30445785  0.16495410     1.51690
Co748      Co  0.65622975  0.33272945  0.10082608     1.51570
Co749      Co  0.59365269  0.32596181  0.15876683     1.51470
O750        O  0.62943200  0.32022933  0.13453266    -1.42840
C751        C  0.54854386  0.34683632  0.15047966     1.08710
C752        C  0.69331272  0.35403121  0.14386999     1.08800
C753        C  0.60863811  0.35152970  0.06998642     1.08740
C754        C  0.62893814  0.35606375  0.19607892     1.08710
O755        O  0.06325701  0.30690662  0.65880710    -0.80910
O756        O  0.16895258  0.27578157  0.63083120    -0.80930
O757        O  0.08334642  0.29796157  0.57148954    -0.80940
O758        O  0.13205063  0.28247044  0.67031259    -0.80880
O759        O  0.12317482  0.27849246  0.58818001    -0.81000
O760        O  0.10573019  0.30839819  0.69870958    -0.80920
O761        O  0.18822142  0.29638771  0.66979307    -0.80910
O762        O  0.08760143  0.28142372  0.62800115    -0.80950
C763        C  0.06633167  0.28386943  0.64482525     1.08780
C764        C  0.18701124  0.27538752  0.65224377     1.08670
C765        C  0.10433718  0.28101526  0.56796588     1.08800
C766        C  0.11874041  0.28508034  0.69379033     1.08680
O767        O  0.11906603  0.36688179  0.68194031    -0.80910
O768        O  0.14558456  0.33463928  0.57107400    -0.80990
O769        O  0.05995586  0.33303122  0.61143582    -0.80920
O770        O  0.17954517  0.35076709  0.64903615    -0.80900
O771        O  0.18762592  0.33028784  0.60841670    -0.80950
O772        O  0.07324659  0.36529762  0.64262192    -0.80920
O773        O  0.15126833  0.33621273  0.69635883    -0.80880
O774        O  0.10374980  0.35119317  0.58227402    -0.80950
Co775      Co  0.09265244  0.33690389  0.66810120     1.51530
Co776      Co  0.15222733  0.30746065  0.60393325     1.51690
Co777      Co  0.09810836  0.31602307  0.60503501     1.51570
Co778      Co  0.15519566  0.31656708  0.65779566     1.51470
O779        O  0.12323398  0.33018967  0.63523830    -1.42840
C780        C  0.13593070  0.35829150  0.70139243     1.08710
C781        C  0.12539486  0.35193738  0.56627489     1.08800
C782        C  0.05415239  0.35507509  0.62592748     1.08740
C783        C  0.19530293  0.34783769  0.62723727     1.08710
O784        O  0.15411779  0.47457512  0.08302335    -0.80910
O785        O  0.09798238  0.48137704  0.17259816    -0.80930
O786        O  0.06784540  0.47412980  0.10342657    -0.80940
O787        O  0.18250126  0.46659649  0.14834809    -0.80880
O788        O  0.05534947  0.45823497  0.14732829    -0.81000
O789        O  0.17168203  0.47554876  0.10359859    -0.80920
O790        O  0.14042416  0.47140328  0.18737958    -0.80910
O791        O  0.11069002  0.46659564  0.06495258    -0.80950
C792        C  0.13364383  0.48128409  0.06548618     1.08780
C793        C  0.11890006  0.48773932  0.18830559     1.08670
C794        C  0.05194635  0.47477471  0.12570428     1.08800
C795        C  0.18670352  0.48116196  0.12569664     1.08680
O796        O  0.19099332  0.42391288  0.10009794    -0.80910
O797        O  0.07884810  0.40145633  0.14813776    -0.80990
O798        O  0.10920819  0.40503116  0.07869442    -0.80920
O799        O  0.12254138  0.41238813  0.18022632    -0.80900
O800        O  0.08275755  0.43093837  0.19874851    -0.80950
O801        O  0.14897663  0.42492814  0.06686838    -0.80920
O802        O  0.16913148  0.40554161  0.13818241    -0.80880
O803        O  0.05953094  0.41606713  0.10832838    -0.80950
Co804      Co  0.15341664  0.43747194  0.10733406     1.51530
Co805      Co  0.09253124  0.44120394  0.15941622     1.51690
Co806      Co  0.08977364  0.44061372  0.09162933     1.51570
Co807      Co  0.15015466  0.43950341  0.15974902     1.51470
O808        O  0.11767032  0.44942585  0.12566215    -1.42840
C809        C  0.19149426  0.40686279  0.12140001     1.08710
C810        C  0.05839455  0.40029225  0.13012392     1.08800
C811        C  0.12905238  0.40800191  0.06052900     1.08740
C812        C  0.10715635  0.41861679  0.20268661     1.08710
O813        O  0.44036940  0.36929484  0.22518602    -0.80910
O814        O  0.30127098  0.40280951  0.21679144    -0.80930
O815        O  0.37554274  0.41577700  0.24858103    -0.80940
O816        O  0.36229052  0.32722365  0.23227038    -0.80880
O817        O  0.34426574  0.44164863  0.22495424    -0.81000
O818        O  0.38790153  0.36134493  0.25071785    -0.80920
O819        O  0.32031182  0.36390139  0.23564365    -0.80910
O820        O  0.43326109  0.41598206  0.23468290    -0.80950
C821        C  0.44808130  0.39288144  0.23773708     1.08780
C822        C  0.30231358  0.38383745  0.23666439     1.08670
C823        C  0.35898982  0.43721522  0.24752329     1.08800
C824        C  0.37462542  0.33771172  0.25379544     1.08680
O825        O  0.40097295  0.32765652  0.19751849    -0.80910
O826        O  0.36353257  0.43516910  0.16591652    -0.80990
O827        O  0.42684208  0.40966284  0.17857381    -0.80920
O828        O  0.30820130  0.35709392  0.17640036    -0.80900
O829        O  0.31936575  0.39808750  0.15602045    -0.80950
O830        O  0.41283461  0.36886174  0.16886226    -0.80920
O831        O  0.36116524  0.32850805  0.17134190    -0.80880
O832        O  0.39210441  0.45055030  0.19932693    -0.80950
Co833      Co  0.40051655  0.36938436  0.20949572     1.51530
Co834      Co  0.33396580  0.41739662  0.19089323     1.51690
Co835      Co  0.39820286  0.40897536  0.21277594     1.51570
Co836      Co  0.33998709  0.34755824  0.20286085     1.51470
O837        O  0.36300319  0.38482785  0.19646190    -1.42840
C838        C  0.38478242  0.31660218  0.17811840     1.08710
C839        C  0.37717541  0.45582356  0.17681496     1.08800
C840        C  0.43119381  0.38732401  0.16440986     1.08740
C841        C  0.30317113  0.37651289  0.15818670     1.08710
O842        O  0.66207767  0.63105135  0.48353283    -0.80910
O843        O  0.56073673  0.66866726  0.46499625    -0.80930
O844        O  0.64782655  0.70039293  0.46004406    -0.80940
O845        O  0.62958936  0.59031348  0.48894271    -0.80880
O846        O  0.61591443  0.67462616  0.48268976    -0.81000
O847        O  0.66930501  0.57537300  0.46695914    -0.80920
O848        O  0.58392310  0.63345830  0.48802464    -0.80910
O849        O  0.69057783  0.65973428  0.46033618    -0.80950
C850        C  0.68456532  0.64582464  0.48310371     1.08780
C851        C  0.56225264  0.65065064  0.48565812     1.08670
C852        C  0.63177349  0.69645720  0.48186029     1.08800
C853        C  0.65209213  0.57382507  0.48810858     1.08680
O854        O  0.64830058  0.58449897  0.41277836    -0.80910
O855        O  0.60040597  0.70023728  0.42893582    -0.80990
O856        O  0.67946032  0.64754483  0.39966927    -0.80920
O857        O  0.56734475  0.61071709  0.43369737    -0.80900
O858        O  0.57489286  0.65052088  0.41120691    -0.80950
O859        O  0.69205391  0.61476110  0.43049740    -0.80920
O860        O  0.60917767  0.57206757  0.43408361    -0.80880
O861        O  0.63521041  0.68713940  0.40031145    -0.80950
Co862      Co  0.65369160  0.60791523  0.44822309     1.51530
Co863      Co  0.59637043  0.66072692  0.44670595     1.51690
Co864      Co  0.66098838  0.67126182  0.43012543     1.51570
Co865      Co  0.60183720  0.60657530  0.45820421     1.51470
O866        O  0.62987288  0.63854134  0.43478822    -1.42840
C867        C  0.62854480  0.56652179  0.41597860     1.08710
C868        C  0.61808040  0.70638510  0.40878147     1.08800
C869        C  0.69762387  0.62926983  0.40807163     1.08740
C870        C  0.56021259  0.62807610  0.41430040     1.08710
O871        O  0.54956565  0.32184107  0.36321646    -0.80910
O872        O  0.52928615  0.43545217  0.38501267    -0.80930
O873        O  0.53787286  0.35214161  0.44972193    -0.80940
O874        O  0.53050484  0.39500359  0.34896326    -0.80880
O875        O  0.52399084  0.38964789  0.42472972    -0.81000
O876        O  0.55294051  0.36355955  0.32309980    -0.80920
O877        O  0.55007224  0.44978316  0.34408408    -0.80910
O878        O  0.52455273  0.34820869  0.39212156    -0.80950
C879        C  0.52649065  0.32575368  0.37727383     1.08780
C880        C  0.52971538  0.45190106  0.36244576     1.08670
C881        C  0.52172736  0.37433293  0.44756239     1.08800
C882        C  0.53122634  0.37908271  0.32725646     1.08680
O883        O  0.61329868  0.37219888  0.33558243    -0.80910
O884        O  0.57984918  0.40475500  0.44816557    -0.80990
O885        O  0.57574839  0.31745903  0.41045882    -0.80920
O886        O  0.60332117  0.43682058  0.36580675    -0.80900
O887        O  0.58575814  0.44540291  0.40811565    -0.80950
O888        O  0.60844927  0.33045239  0.37905022    -0.80920
O889        O  0.58538628  0.40616545  0.31939173    -0.80880
O890        O  0.59543315  0.36258872  0.43747457    -0.80950
Co891      Co  0.58121832  0.34959211  0.35253690     1.51530
Co892      Co  0.55714941  0.41458604  0.41264594     1.51690
Co893      Co  0.56016285  0.35810580  0.41450030     1.51570
Co894      Co  0.56699408  0.41507837  0.35853671     1.51470
O895        O  0.57697676  0.38221595  0.38335220    -1.42840
C896        C  0.60575997  0.38830865  0.31498407     1.08710
C897        C  0.59569863  0.38364838  0.45400078     1.08800
C898        C  0.59773006  0.31104547  0.39502764     1.08740
C899        C  0.60360443  0.45143293  0.38863680     1.08710
O900        O  0.28175203  0.08804947  0.62509168    -0.80910
O901        O  0.29654867  0.19017889  0.66761385    -0.80930
O902        O  0.27797974  0.11722903  0.67338510    -0.80940
O903        O  0.28079190  0.16590727  0.57863114    -0.80880
O904        O  0.30102344  0.14437832  0.70393181    -0.81000
O905        O  0.29408723  0.11933667  0.57692551    -0.80920
O906        O  0.27018339  0.16528725  0.63755618    -0.80910
O907        O  0.29777882  0.06397413  0.66244528    -0.80950
C908        C  0.27941662  0.06670567  0.64262388     1.08780
C909        C  0.27273603  0.18604151  0.65505800     1.08670
C910        C  0.27886064  0.12984771  0.69738837     1.08800
C911        C  0.27974689  0.14098764  0.56673483     1.08680
O912        O  0.35509002  0.11679033  0.58724692    -0.80910
O913        O  0.36092309  0.13902487  0.68966691    -0.80990
O914        O  0.34747262  0.07992967  0.63611643    -0.80920
O915        O  0.32105478  0.19815033  0.61842239    -0.80900
O916        O  0.35465267  0.18695736  0.65140304    -0.80950
O917        O  0.32731373  0.06699336  0.59488386    -0.80920
O918        O  0.33627567  0.15889150  0.58444990    -0.80880
O919        O  0.33434947  0.10009522  0.69200608    -0.80950
Co920      Co  0.32041305  0.10505178  0.61008268     1.51530
Co921      Co  0.32871940  0.16345348  0.67591267     1.51690
Co922      Co  0.31325225  0.10083742  0.65474643     1.51570
Co923      Co  0.30369217  0.15878152  0.61177506     1.51470
O924        O  0.32421427  0.13827574  0.63988898    -1.42840
C925        C  0.35197868  0.13986505  0.57348718     1.08710
C926        C  0.35394016  0.11592044  0.70253882     1.08800
C927        C  0.34319771  0.06056373  0.61652943     1.08740
C928        C  0.34476926  0.20353921  0.63180184     1.08710
O929        O  0.28944602  0.66115575  0.06491793    -0.80910
O930        O  0.26343915  0.63657659  0.17530008    -0.80930
O931        O  0.29537084  0.57112577  0.11372020    -0.80940
O932        O  0.28946165  0.69691236  0.14947490    -0.80880
O933        O  0.26560180  0.59585142  0.13851635    -0.81000
O934        O  0.26788405  0.66763338  0.11909045    -0.80920
O935        O  0.29011564  0.66385770  0.20066891    -0.80910
O936        O  0.28124662  0.61840484  0.08322467    -0.80950
C937        C  0.27491658  0.63808285  0.06455677     1.08780
C938        C  0.26680935  0.64981674  0.19826151     1.08670
C939        C  0.27083153  0.57306826  0.12551533     1.08800
C940        C  0.26873901  0.69120850  0.13249286     1.08680
O941        O  0.32241731  0.69218551  0.10370657    -0.80910
O942        O  0.32060959  0.57537980  0.16259021    -0.80990
O943        O  0.33274629  0.59279751  0.07184697    -0.80920
O944        O  0.34928035  0.64969623  0.18693137    -0.80900
O945        O  0.31809460  0.61746235  0.20298761    -0.80950
O946        O  0.34116880  0.63867606  0.08072236    -0.80920
O947        O  0.34992000  0.68358098  0.14037229    -0.80880
O948        O  0.35129789  0.59029166  0.12890398    -0.80950
Co949      Co  0.30395803  0.65248563  0.10246834     1.51530
Co950      Co  0.29253322  0.60769928  0.16844023     1.51690
Co951      Co  0.31837794  0.60775367  0.10740376     1.51570
Co952      Co  0.31949890  0.67118207  0.16730382     1.51470
O953        O  0.31179361  0.63507340  0.14149895    -1.42840
C954        C  0.34257123  0.70023620  0.12040588     1.08710
C955        C  0.34405024  0.57226361  0.14840487     1.08800
C956        C  0.34485964  0.61619102  0.06447452     1.08740
C957        C  0.34117276  0.63230020  0.20594628     1.08710
O958        O  0.46930661  0.12504201  0.09341268    -0.80910
O959        O  0.44377745  0.15256873  0.20349329    -0.80930
O960        O  0.47291323  0.16505392  0.13128438    -0.80940
O961        O  0.45937842  0.07081204  0.17864421    -0.80880
O962        O  0.44947349  0.19228940  0.16139351    -0.81000
O963        O  0.45956434  0.07708462  0.13076251    -0.80920
O964        O  0.47145005  0.12683999  0.17650357    -0.80910
O965        O  0.45714777  0.16760720  0.07498008    -0.80950
C966        C  0.47174360  0.14444967  0.07368699     1.08780
C967        C  0.46801302  0.14112292  0.19947916     1.08670
C968        C  0.47218354  0.18719250  0.14685184     1.08800
C969        C  0.46874136  0.06431673  0.15361786     1.08680
O970        O  0.40022177  0.07875450  0.11277285    -0.80910
O971        O  0.38944475  0.18315740  0.14548811    -0.80990
O972        O  0.40019322  0.15779251  0.08657657    -0.80920
O973        O  0.41625328  0.10732000  0.20232798    -0.80900
O974        O  0.38567251  0.14048460  0.18819993    -0.80950
O975        O  0.41217497  0.11606656  0.07211379    -0.80920
O976        O  0.40618734  0.07369044  0.15862266    -0.80880
O977        O  0.42252458  0.19852253  0.11584611    -0.80950
Co978      Co  0.43374133  0.10340576  0.10673422     1.51530
Co979      Co  0.41665234  0.16503912  0.17235635     1.51690
Co980      Co  0.43655296  0.15827797  0.10938930     1.51570
Co981      Co  0.43801313  0.10249029  0.16471445     1.51470
O982        O  0.42097663  0.13360012  0.14058242    -1.42840
C983        C  0.39579197  0.06459494  0.13523389     1.08710
C984        C  0.40072840  0.20365598  0.13161439     1.08800
C985        C  0.39824972  0.13853721  0.06799720     1.08740
C986        C  0.39328710  0.12179231  0.20668450     1.08710
O987        O  0.32721182  0.22963165  0.37406610    -0.80910
O988        O  0.43250960  0.22405314  0.40891338    -0.80930
O989        O  0.36048447  0.23586995  0.41735180    -0.80940
O990        O  0.39952492  0.23344458  0.34004914    -0.80880
O991        O  0.38992095  0.21444556  0.44646713    -0.81000
O992        O  0.35588738  0.21974998  0.32732638    -0.80920
O993        O  0.44700528  0.21019719  0.36654752    -0.80910
O994        O  0.30723784  0.21110986  0.41245940    -0.80950
C995        C  0.30659548  0.22979201  0.39268685     1.08780
C996        C  0.44836329  0.22762954  0.38706624     1.08670
C997        C  0.37422678  0.23559032  0.44075480     1.08800
C998        C  0.37594318  0.23882276  0.32766447     1.08680
O999        O  0.35885236  0.15488691  0.34147296    -0.80910
O1000       O  0.38952082  0.15481128  0.43559593    -0.80990
O1001       O  0.32427166  0.16236223  0.38620010    -0.80920
O1002       O  0.42669058  0.15518721  0.35426560    -0.80900
O1003       O  0.43853699  0.16167884  0.40010571    -0.80950
O1004       O  0.30799906  0.18212640  0.34654841    -0.80920
O1005       O  0.38849550  0.17890357  0.31531892    -0.80880
O1006       O  0.34889733  0.17838288  0.43816213    -0.80950
Co1007     Co  0.34640418  0.19176026  0.36015000     1.51530
Co1008     Co  0.41062153  0.18854150  0.41946949     1.51690
Co1009     Co  0.34534461  0.19886586  0.40072960     1.51570
Co1010     Co  0.41253202  0.19437676  0.34731222     1.51470
O1011       O  0.38463693  0.19234286  0.38266626    -1.42840
C1012       C  0.37148468  0.15816315  0.31779120     1.08710
C1013       C  0.36654355  0.16085960  0.44924748     1.08800
C1014       C  0.30427332  0.16382339  0.36682762     1.08740
C1015       C  0.44174388  0.14869827  0.37605933     1.08710
O1016       O  0.58488741  0.77425959  0.63750591    -0.80910
O1017       O  0.69688640  0.79698356  0.60579407    -0.80930
O1018       O  0.61075178  0.80098063  0.57356347    -0.80940
O1019       O  0.65345346  0.80508029  0.69797709    -0.80880
O1020       O  0.64201274  0.77662452  0.59941133    -0.81000
O1021       O  0.62590688  0.77546877  0.67589782    -0.80920
O1022       O  0.67739333  0.78965666  0.64896224    -0.80910
O1023       O  0.56251049  0.80314981  0.60829047    -0.80950
C1024       C  0.56401990  0.77911688  0.62113329     1.08780
C1025       C  0.69618696  0.78347987  0.62966477     1.08670
C1026       C  0.62677361  0.77895561  0.57692238     1.08800
C1027       C  0.64117219  0.78092985  0.69743436     1.08680
O1028       O  0.60655168  0.83199418  0.69701331    -0.80910
O1029       O  0.65705891  0.83109909  0.57635073    -0.80990
O1030       O  0.57647091  0.86062584  0.62484327    -0.80920
O1031       O  0.69465667  0.83912302  0.67302020    -0.80900
O1032       O  0.68257227  0.84831145  0.62803829    -0.80950
O1033       O  0.56250262  0.82902435  0.65786994    -0.80920
O1034       O  0.64003433  0.86100738  0.67890158    -0.80880
O1035       O  0.62378119  0.86092264  0.58980840    -0.80950
Co1036     Co  0.59642868  0.80330021  0.66545120     1.51530
Co1037     Co  0.65971593  0.81196889  0.61533516     1.51690
Co1038     Co  0.59547940  0.83138698  0.60123983     1.51570
Co1039     Co  0.65751091  0.82728159  0.66050153     1.51470
O1040       O  0.62193954  0.82095010  0.63559187    -1.42840
C1041       C  0.62248046  0.85448008  0.69895952     1.08710
C1042       C  0.64174075  0.85298724  0.57114627     1.08800
C1043       C  0.55876970  0.85227905  0.64382485     1.08740
C1044       C  0.70137570  0.84961772  0.64861779     1.08710
O1045       O  0.21114444  0.32619360  0.40725777    -0.80910
O1046       O  0.21138159  0.44171796  0.35902053    -0.80930
O1047       O  0.20792771  0.35597915  0.32964797    -0.80940
O1048       O  0.22540635  0.39547749  0.41473947    -0.80880
O1049       O  0.22940649  0.38526516  0.35977997    -0.81000
O1050       O  0.20470658  0.36688901  0.44510449    -0.80920
O1051       O  0.20046881  0.44860883  0.40551676    -0.80910
O1052       O  0.19550136  0.31141781  0.36494603    -0.80950
C1053       C  0.21406506  0.31126988  0.38502302     1.08780
C1054       C  0.21158386  0.45775772  0.38147066     1.08670
C1055       C  0.23001850  0.37013042  0.33713344     1.08800
C1056       C  0.22663935  0.38105234  0.43801045     1.08680
O1057       O  0.14444681  0.36680392  0.43903389    -0.80910
O1058       O  0.18336019  0.40224671  0.32177463    -0.80990
O1059       O  0.13536084  0.32743960  0.36374370    -0.80920
O1060       O  0.14540170  0.42467115  0.40221322    -0.80900
O1061       O  0.15632601  0.42749294  0.35867314    -0.80950
O1062       O  0.15081357  0.31437994  0.40668644    -0.80920
O1063       O  0.17035845  0.40632054  0.44514701    -0.80880
O1064       O  0.14776763  0.37230136  0.32818596    -0.80950
Co1065     Co  0.17690769  0.34554442  0.42137618     1.51530
Co1066     Co  0.19229972  0.40514254  0.36438556     1.51690
Co1067     Co  0.17153280  0.34386443  0.34927579     1.51570
Co1068     Co  0.18504238  0.40877144  0.40396617     1.51470
O1069       O  0.17369203  0.37059404  0.38494888    -1.42840
C1070       C  0.15106278  0.38872894  0.45417703     1.08710
C1071       C  0.15999252  0.39121013  0.31281035     1.08800
C1072       C  0.13587125  0.30974480  0.38425280     1.08740
C1073       C  0.14050702  0.43572151  0.37852794     1.08710
O1074       O  0.58499464  0.63136767  0.78104769    -0.80910
O1075       O  0.65970066  0.63895442  0.78391250    -0.80930
O1076       O  0.61576255  0.68247683  0.79688338    -0.80940
O1077       O  0.64683736  0.56272534  0.80691419    -0.80880
O1078       O  0.66168062  0.69287611  0.80454981    -0.81000
O1079       O  0.61918678  0.58743616  0.77827824    -0.80920
O1080       O  0.68530325  0.60789157  0.80828914    -0.80910
O1081       O  0.56341825  0.65903690  0.81067896    -0.80950
C1082       C  0.56442323  0.64786548  0.78608381     1.08780
C1083       C  0.68189170  0.62358930  0.78594303     1.08670
C1084       C  0.63884618  0.69702694  0.79029808     1.08800
C1085       C  0.63458806  0.56583705  0.78268699     1.08680
O1086       O  0.59570547  0.56368214  0.83160188    -0.80910
O1087       O  0.63344530  0.68543440  0.85403101    -0.80990
O1088       O  0.57817793  0.64117052  0.86609241    -0.80920
O1089       O  0.66741303  0.61873950  0.86839756    -0.80900
O1090       O  0.68341639  0.65222165  0.84024602    -0.80950
O1091       O  0.55867672  0.61045055  0.83555716    -0.80920
O1092       O  0.62798788  0.57431477  0.86462955    -0.80880
O1093       O  0.58755999  0.69598154  0.84631601    -0.80950
Co1094     Co  0.59136002  0.59970611  0.80760225     1.51530
Co1095     Co  0.64568074  0.65867878  0.81916231     1.51690
Co1096     Co  0.59994990  0.65976428  0.83387757     1.51570
Co1097     Co  0.65470208  0.59324563  0.83713071     1.51470
O1098       O  0.62227989  0.62273110  0.82739525    -1.42840
C1099       C  0.60945698  0.55703988  0.85444906     1.08710
C1100       C  0.61209516  0.70360933  0.85520373     1.08800
C1101       C  0.55669450  0.62571484  0.85852894     1.08740
C1102       C  0.68783395  0.63486065  0.86090629     1.08710
O1103       O  0.31010723  0.36634520  0.55355207    -0.80910
O1104       O  0.43218327  0.41288039  0.55519545    -0.80930
O1105       O  0.33490490  0.45145073  0.55220302    -0.80940
O1106       O  0.37519418  0.34245926  0.52377806    -0.80880
O1107       O  0.37882720  0.43797527  0.53922092    -0.81000
O1108       O  0.34598083  0.32002486  0.55341197    -0.80920
O1109       O  0.41206806  0.38441305  0.52534329    -0.80910
O1110       O  0.33459855  0.39831894  0.52900063    -0.80950
C1111       C  0.31347608  0.38132639  0.53063978     1.08780
C1112       C  0.43345817  0.39907205  0.53185978     1.08670
C1113       C  0.35606331  0.45385793  0.53524733     1.08800
C1114       C  0.35869407  0.32177749  0.52901351     1.08680
O1115       O  0.36559506  0.33431633  0.61113441    -0.80910
O1116       O  0.40647998  0.45333723  0.58875619    -0.80990
O1117       O  0.31103622  0.41125886  0.58488378    -0.80920
O1118       O  0.43248066  0.36565201  0.58351426    -0.80900
O1119       O  0.41138397  0.39845898  0.61084556    -0.80950
O1120       O  0.32992151  0.38021210  0.61308689    -0.80920
O1121       O  0.39609092  0.31980208  0.57797601    -0.80880
O1122       O  0.36221312  0.44121081  0.60092038    -0.80950
Co1123     Co  0.33950448  0.35207448  0.58294865     1.51530
Co1124     Co  0.39378154  0.41655316  0.57658192     1.51690
Co1125     Co  0.34937762  0.41652455  0.56484799     1.51570
Co1126     Co  0.40241643  0.35466927  0.55335064     1.51470
O1127       O  0.37170913  0.37955606  0.57085712    -1.42840
C1128       C  0.38270437  0.31555196  0.60158866     1.08710
C1129       C  0.38307283  0.45995317  0.60104860     1.08800
C1130       C  0.30843039  0.39501110  0.60650943     1.08740
C1131       C  0.43263400  0.38208055  0.60567578     1.08710
O1132       O  0.47874618  0.66893163  0.62383482    -0.80910
O1133       O  0.47692243  0.59431295  0.63701011    -0.80930
O1134       O  0.45373421  0.66116470  0.70055238    -0.80940
O1135       O  0.46383960  0.62362536  0.58299282    -0.80880
O1136       O  0.48037846  0.62931925  0.67917436    -0.81000
O1137       O  0.45779769  0.66894099  0.56944265    -0.80920
O1138       O  0.44711606  0.57337155  0.60917822    -0.80910
O1139       O  0.45547018  0.69665170  0.65433808    -0.80950
C1140       C  0.47763299  0.69152115  0.63874195     1.08780
C1141       C  0.47092860  0.57271512  0.62248595     1.08670
C1142       C  0.47760936  0.64820998  0.69792936     1.08800
C1143       C  0.47038926  0.64509536  0.56651909     1.08680
O1144       O  0.40557485  0.64736701  0.58163008    -0.80910
O1145       O  0.42595986  0.61197756  0.70317769    -0.80990
O1146       O  0.39539569  0.68127486  0.64096088    -0.80920
O1147       O  0.39225585  0.59653233  0.62589000    -0.80900
O1148       O  0.41976152  0.57399131  0.65736733    -0.80950
O1149       O  0.42554072  0.69706578  0.60961446    -0.80920
O1150       O  0.41172206  0.60194871  0.56932289    -0.80880
O1151       O  0.39526319  0.64382500  0.68675879    -0.80950
Co1152     Co  0.44268479  0.65693904  0.60519216     1.51530
Co1153     Co  0.44994050  0.60392603  0.66765751     1.51690
Co1154     Co  0.42455973  0.66883873  0.66901976     1.51570
Co1155     Co  0.42649768  0.61239831  0.60596247     1.51470
O1156       O  0.43427984  0.63536461  0.64220118    -1.42840
C1157       C  0.40174668  0.62664339  0.56339224     1.08710
C1158       C  0.40404655  0.62788556  0.70694864     1.08800
C1159       C  0.40441083  0.70210942  0.62626211     1.08740
C1160       C  0.39723513  0.57466699  0.64158093     1.08710
O1161       O  0.68329167  0.45532784  0.66136431    -0.80910
O1162       O  0.57797498  0.48574402  0.63100742    -0.80930
O1163       O  0.66544175  0.46602270  0.57540501    -0.80940
O1164       O  0.61050117  0.47982091  0.67343367    -0.80880
O1165       O  0.62464791  0.48600063  0.58974620    -0.81000
O1166       O  0.64000500  0.45445144  0.69934865    -0.80920
O1167       O  0.55362401  0.46554793  0.66715773    -0.80910
O1168       O  0.65823215  0.48109015  0.63183091    -0.80950
C1169       C  0.67967770  0.47877629  0.64827376     1.08780
C1170       C  0.55571500  0.48521296  0.64793528     1.08670
C1171       C  0.64771888  0.48658780  0.57407834     1.08800
C1172       C  0.62661748  0.47755370  0.69513972     1.08680
O1173       O  0.62674081  0.39588899  0.68523905    -0.80910
O1174       O  0.60421032  0.43010091  0.57101319    -0.80990
O1175       O  0.68738294  0.42938887  0.61477792    -0.80920
O1176       O  0.56519889  0.41106585  0.64906514    -0.80900
O1177       O  0.56137965  0.43129831  0.60766069    -0.80950
O1178       O  0.67485325  0.39659413  0.64604800    -0.80920
O1179       O  0.59261780  0.42578989  0.69859617    -0.80880
O1180       O  0.64462736  0.41184002  0.58377514    -0.80950
Co1181     Co  0.65365137  0.42543527  0.67037764     1.51530
Co1182     Co  0.59625519  0.45530994  0.60463829     1.51690
Co1183     Co  0.64911516  0.44667334  0.60766897     1.51570
Co1184     Co  0.58909332  0.44519582  0.65932380     1.51470
O1185       O  0.62321542  0.43216370  0.63725178    -1.42840
C1186       C  0.60920662  0.40465884  0.70440328     1.08710
C1187       C  0.62380031  0.41211127  0.56683218     1.08800
C1188       C  0.69360965  0.40697810  0.62871181     1.08740
C1189       C  0.55103595  0.41473057  0.62629105     1.08710
O1190       O  0.31393307  0.54906296  0.39342161    -0.80910
O1191       O  0.43418339  0.55421798  0.35486285    -0.80930
O1192       O  0.35193046  0.53347504  0.34901064    -0.80940
O1193       O  0.36789890  0.52811899  0.41941662    -0.80880
O1194       O  0.38514883  0.55454521  0.32235911    -0.81000
O1195       O  0.34154330  0.55836472  0.44220568    -0.80920
O1196       O  0.41247058  0.52447092  0.38387302    -0.80910
O1197       O  0.29968391  0.56048775  0.34978025    -0.80950
C1198       C  0.29515643  0.54699411  0.37311314     1.08780
C1199       C  0.43252035  0.52956756  0.36617842     1.08670
C1200       C  0.36822733  0.53330280  0.32725920     1.08800
C1201       C  0.35383516  0.53430660  0.44142701     1.08680
O1202       O  0.36049894  0.61420894  0.42718652    -0.80910
O1203       O  0.37841227  0.61644161  0.34054927    -0.80990
O1204       O  0.31708878  0.60875234  0.37536194    -0.80920
O1205       O  0.43621260  0.57717261  0.40674185    -0.80900
O1206       O  0.42516398  0.61094765  0.37501952    -0.80950
O1207       O  0.30318835  0.59882681  0.41973827    -0.80920
O1208       O  0.39044190  0.58178636  0.44540652    -0.80880
O1209       O  0.34425797  0.58966485  0.32424487    -0.80950
Co1210     Co  0.33932420  0.58348724  0.40690929     1.51530
Co1211     Co  0.40342344  0.58419890  0.35010001     1.51690
Co1212     Co  0.33740381  0.57059320  0.36275743     1.51570
Co1213     Co  0.40012984  0.55375423  0.41241753     1.51470
O1214       O  0.37576291  0.57462820  0.38351701    -1.42840
C1215       C  0.37631334  0.60539731  0.44771919     1.08710
C1216       C  0.36150828  0.61042723  0.32063082     1.08800
C1217       C  0.29768149  0.61061777  0.39561557     1.08740
C1218       C  0.44262556  0.60001901  0.39288351     1.08710
O1219       O  0.56730291  0.14079089  0.97665550    -0.80910
O1220       O  0.65532839  0.12896080  0.98526971    -0.80930
O1221       O  0.61467400  0.09275204  0.98966536    -0.80940
O1222       O  0.64752460  0.19618810  0.95963285    -0.80880
O1223       O  0.65468735  0.07222503  0.97397772    -0.81000
O1224       O  0.61562845  0.17356577  0.98542114    -0.80920
O1225       O  0.68455965  0.15295904  0.95812727    -0.80910
O1226       O  0.55937300  0.09408991  0.97493938    -0.80950
C1227       C  0.55446291  0.11835312  0.98627189     1.08780
C1228       C  0.67844084  0.14293054  0.98233177     1.08670
C1229       C  0.63527865  0.07405630  0.99320362     1.08800
C1230       C  0.63348588  0.19368155  0.98333591     1.08680
O1231       O  0.60575924  0.20151515  0.92942901    -0.80910
O1232       O  0.63650033  0.07858062  0.91809989    -0.80990
O1233       O  0.56362869  0.11531740  0.92080167    -0.80920
O1234       O  0.67394763  0.13737376  0.90064252    -0.80900
O1235       O  0.68237322  0.10563465  0.93419840    -0.80950
O1236       O  0.56509352  0.16217582  0.91921173    -0.80920
O1237       O  0.63402714  0.18193021  0.89776475    -0.80880
O1238       O  0.59517539  0.06841477  0.93606391    -0.80950
Co1239     Co  0.59185819  0.16651554  0.95135086     1.51530
Co1240     Co  0.64343457  0.10442662  0.95189165     1.51690
Co1241     Co  0.59161631  0.10776169  0.95340459     1.51570
Co1242     Co  0.65689739  0.16484547  0.92884299     1.51470
O1243       O  0.62209964  0.13618535  0.93541513    -1.42840
C1244       C  0.62110531  0.20370203  0.90685522     1.08710
C1245       C  0.61607376  0.06106082  0.92039116     1.08800
C1246       C  0.55278952  0.13904960  0.91287239     1.08740
C1247       C  0.69085092  0.11918199  0.91207803     1.08710
O1248       O  0.19334866  0.96299431  0.66205627    -0.80910
O1249       O  0.09114386  0.98721794  0.63464760    -0.80930
O1250       O  0.16075917  0.96011188  0.56600939    -0.80940
O1251       O  0.10985777  0.96162919  0.69722093    -0.80880
O1252       O  0.12717758  0.98540968  0.58797425    -0.81000
O1253       O  0.13926591  0.98479542  0.66844886    -0.80920
O1254       O  0.06399849  0.96109600  0.66208751    -0.80910
O1255       O  0.17246963  0.97824306  0.62151897    -0.80950
C1256       C  0.19313499  0.97959156  0.64025163     1.08780
C1257       C  0.06862132  0.98465731  0.64935933     1.08670
C1258       C  0.14435349  0.98195142  0.56637393     1.08800
C1259       C  0.12341946  0.98447293  0.69087861     1.08680
O1260       O  0.15470797  0.93188272  0.69543661    -0.80910
O1261       O  0.10013722  0.93129913  0.57044404    -0.80990
O1262       O  0.18877221  0.92216332  0.60521499    -0.80920
O1263       O  0.07243613  0.90217991  0.64864747    -0.80900
O1264       O  0.06204246  0.93437452  0.61518346    -0.80950
O1265       O  0.17499204  0.90939784  0.64751737    -0.80920
O1266       O  0.11958331  0.90123868  0.68866880    -0.80880
O1267       O  0.13827658  0.90817147  0.58337121    -0.80950
Co1268     Co  0.15662899  0.94738531  0.65532132     1.51530
Co1269     Co  0.09701233  0.95796339  0.60486861     1.51690
Co1270     Co  0.15172628  0.94298488  0.60329870     1.51570
Co1271     Co  0.09386809  0.93108687  0.67132226     1.51470
O1272       O  0.12199364  0.93600321  0.63558781    -1.42840
C1273       C  0.13937253  0.91123078  0.70472349     1.08710
C1274       C  0.11809773  0.91140584  0.56577989     1.08800
C1275       C  0.19248336  0.90642823  0.62689251     1.08740
C1276       C  0.05489982  0.91265040  0.63042414     1.08710
O1277       O  0.15242972  0.69779897  0.96774199    -0.80910
O1278       O  0.11099212  0.59350227  0.98226590    -0.80930
O1279       O  0.07354768  0.63088730  0.98756053    -0.80940
O1280       O  0.18506307  0.61359297  0.95870240    -0.80880
O1281       O  0.05405335  0.59374867  0.96526165    -0.81000
O1282       O  0.15765995  0.64200221  0.98362426    -0.80920
O1283       O  0.14468725  0.57083511  0.95847856    -0.80910
O1284       O  0.11629565  0.67453851  0.98843294    -0.80950
C1285       C  0.13408733  0.69578725  0.98816398     1.08780
C1286       C  0.12921901  0.57346816  0.98082749     1.08670
C1287       C  0.05323979  0.61220214  0.98555599     1.08800
C1288       C  0.18086091  0.62828846  0.98122989     1.08680
O1289       O  0.18222095  0.66093803  0.92977143    -0.80910
O1290       O  0.06656845  0.61391757  0.91101520    -0.80990
O1291       O  0.09420281  0.69373906  0.93441816    -0.80920
O1292       O  0.13189977  0.58232637  0.89888934    -0.80900
O1293       O  0.09724016  0.56772239  0.92810402    -0.80950
O1294       O  0.13410212  0.68499118  0.91329306    -0.80920
O1295       O  0.17364494  0.62586946  0.89941230    -0.80880
O1296       O  0.05502669  0.65276743  0.93246641    -0.80950
Co1297     Co  0.14336504  0.66294276  0.94842124     1.51530
Co1298     Co  0.08944002  0.60578475  0.94678180     1.51690
Co1299     Co  0.08953373  0.65860110  0.95754788     1.51570
Co1300     Co  0.15585826  0.60050410  0.92905287     1.51470
O1301       O  0.12169239  0.63012175  0.93475636    -1.42840
C1302       C  0.19014677  0.64552591  0.90862452     1.08710
C1303       C  0.04914577  0.63442912  0.91357111     1.08800
C1304       C  0.11316203  0.70141101  0.91689462     1.08740
C1305       C  0.11405497  0.56329870  0.90678462     1.08710
O1306       O  0.97273527  0.58643368  0.14345566    -0.80910
O1307       O  0.95225365  0.69600155  0.10922478    -0.80930
O1308       O  0.97369656  0.62061772  0.10304134    -0.80940
O1309       O  0.95924254  0.67621408  0.19808283    -0.80880
O1310       O  0.95292124  0.64936817  0.07317734    -0.81000
O1311       O  0.97577079  0.63489354  0.18111696    -0.80920
O1312       O  0.97616608  0.67276533  0.14174775    -0.80910
O1313       O  0.95242982  0.56653632  0.10509596    -0.80950
C1314       C  0.97106642  0.56576194  0.12507235     1.08780
C1315       C  0.97464446  0.69362082  0.12450230     1.08670
C1316       C  0.97364639  0.63279833  0.07897521     1.08800
C1317       C  0.97586289  0.65457868  0.20070206     1.08680
O1318       O  0.91927190  0.61955165  0.20141188    -0.80910
O1319       O  0.89171366  0.64151093  0.08396352    -0.80990
O1320       O  0.89976119  0.58174154  0.12259143    -0.80920
O1321       O  0.92195720  0.70269245  0.15386035    -0.80900
O1322       O  0.89199175  0.68666874  0.12093834    -0.80950
O1323       O  0.91661953  0.57447826  0.16498030    -0.80920
O1324       O  0.90387254  0.66004473  0.18576191    -0.80880
O1325       O  0.92045511  0.60606851  0.07389547    -0.80950
Co1326     Co  0.94349143  0.60797434  0.16810531     1.51530
Co1327     Co  0.92228265  0.66609437  0.09951961     1.51690
Co1328     Co  0.93634905  0.60240687  0.11428542     1.51570
Co1329     Co  0.93976537  0.66393056  0.16351911     1.51470
O1330       O  0.92497890  0.63731674  0.13443154    -1.42840
C1331       C  0.90405458  0.64141280  0.20513195     1.08710
C1332       C  0.90052628  0.62306917  0.06632766     1.08800
C1333       C  0.90097457  0.56593639  0.14463235     1.08740
C1334       C  0.90021679  0.70655949  0.13736659     1.08710
O1335       O  0.97631332  0.17586763  0.62634749    -0.80910
O1336       O  0.95801054  0.06943028  0.64680180    -0.80930
O1337       O  0.98071275  0.13763653  0.66453905    -0.80940
O1338       O  0.98033427  0.12597693  0.59743971    -0.80880
O1339       O  0.95997584  0.10660250  0.69229519    -0.81000
O1340       O  0.96323038  0.16275738  0.57197648    -0.80920
O1341       O  0.96894444  0.06891990  0.59959367    -0.80910
O1342       O  0.96333006  0.19274752  0.66924348    -0.80950
C1343       C  0.97965408  0.19407622  0.64733391     1.08780
C1344       C  0.97297233  0.05943578  0.62501255     1.08670
C1345       C  0.98162100  0.12119582  0.68596660     1.08800
C1346       C  0.98209603  0.14298888  0.57509923     1.08680
O1347       O  0.90881424  0.14303031  0.58104391    -0.80910
O1348       O  0.90072637  0.11733338  0.69308744    -0.80990
O1349       O  0.90884398  0.18326463  0.65261540    -0.80920
O1350       O  0.91513560  0.06872400  0.61288145    -0.80900
O1351       O  0.89249438  0.07989984  0.65169001    -0.80950
O1352       O  0.92096843  0.19216979  0.60806447    -0.80920
O1353       O  0.93056884  0.10341793  0.57065906    -0.80880
O1354       O  0.93007030  0.15407817  0.69852316    -0.80950
Co1355     Co  0.94162677  0.15487433  0.60576464     1.51530
Co1356     Co  0.92740309  0.09576028  0.66802405     1.51690
Co1357     Co  0.94375426  0.15943291  0.65776352     1.51570
Co1358     Co  0.94623553  0.09974503  0.61023528     1.51470
O1359       O  0.92600580  0.12853819  0.63689640    -1.42840
C1360       C  0.91289925  0.12260551  0.56378782     1.08710
C1361       C  0.91012210  0.13794381  0.70801767     1.08800
C1362       C  0.90749530  0.19942461  0.63067880     1.08740
C1363       C  0.89619148  0.06292195  0.63156049     1.08710
O1364       O  0.55681316  0.96795599  0.10389854    -0.80910
O1365       O  0.65544929  0.98037016  0.14784305    -0.80930
O1366       O  0.61902636  0.97708599  0.18670938    -0.80940
O1367       O  0.64489294  0.96566560  0.07840526    -0.80880
O1368       O  0.66002208  0.95957844  0.20234116    -0.81000
O1369       O  0.61248247  0.98581749  0.10538351    -0.80920
O1370       O  0.68564440  0.95946941  0.11946507    -0.80910
O1371       O  0.57579674  0.98012806  0.14611085    -0.80950
C1372       C  0.55667946  0.98358283  0.12648931     1.08780
C1373       C  0.67910917  0.98075828  0.13501100     1.08670
C1374       C  0.63825721  0.97551109  0.20645199     1.08800
C1375       C  0.62985558  0.98744948  0.08440753     1.08680
O1376       O  0.59823978  0.93625475  0.07094039    -0.80910
O1377       O  0.64238296  0.90605281  0.18695493    -0.80990
O1378       O  0.56051642  0.92140568  0.15949514    -0.80920
O1379       O  0.67453071  0.89878991  0.12234960    -0.80900
O1380       O  0.68588166  0.92549861  0.15986698    -0.80950
O1381       O  0.56892089  0.91200771  0.11474946    -0.80920
O1382       O  0.63300807  0.90517520  0.07897846    -0.80880
O1383       O  0.60056962  0.91952013  0.20072664    -0.80950
Co1384     Co  0.59177066  0.94824696  0.11231600     1.51530
Co1385     Co  0.64705096  0.94320171  0.16691816     1.51690
Co1386     Co  0.59321463  0.94704686  0.16838523     1.51570
Co1387     Co  0.65672269  0.93182962  0.10238096     1.51470
O1388       O  0.62387461  0.93146945  0.13427437    -1.42840
C1389       C  0.61438583  0.91594433  0.06221805     1.08710
C1390       C  0.62264209  0.90486715  0.20532476     1.08800
C1391       C  0.55345463  0.90849768  0.13684483     1.08740
C1392       C  0.69101174  0.90426838  0.14339280     1.08710
C1393       C  0.04135235  0.61018305  0.03745010    -0.21080
C1394       C  0.03144184  0.61149590  0.00883725    -0.07640
C1395       C  0.00200717  0.61724362  0.00372537     0.13230
C1396       C  0.98406455  0.62400275  0.02717850    -0.21130
C1397       C  0.99425051  0.62422092  0.05578444    -0.07650
C1398       C  0.02277126  0.61476890  0.06099732     0.13210
C1399       C  0.03379098  0.60865620  0.09087334    -0.24480
H1400       H  0.06390597  0.60557148  0.04140913     0.14500
H1401       H  0.96171906  0.62895060  0.02295474     0.14530
C1402       C  0.98879883  0.61760341  0.97402405    -0.24430
H1403       H  0.05686235  0.60228093  0.09075614     0.04740
H1404       H  0.02130688  0.59065536  0.10027005     0.07970
H1405       H  0.03156725  0.62768876  0.10470732     0.07970
H1406       H  0.00468542  0.61382084  0.95660731     0.07950
H1407       H  0.97842556  0.63869378  0.97010971     0.07950
H1408       H  0.97193236  0.60070812  0.97268270     0.04730
C1409       C  0.04242735  0.01716198  0.61748925    -0.21080
C1410       C  0.04547098  0.00595132  0.64547211    -0.07640
C1411       C  0.02373745  0.01111927  0.66628150     0.13230
C1412       C  0.99976064  0.02770225  0.65857233    -0.21130
C1413       C  0.99661418  0.03880158  0.63044063    -0.07650
C1414       C  0.01798595  0.03252658  0.60930282     0.13210
C1415       C  0.01530213  0.04078091  0.57779147    -0.24480
H1416       H  0.05849379  0.01216833  0.60116467     0.14500
H1417       H  0.98354184  0.03229458  0.67484038     0.14530
C1418       C  0.02591303  0.99993996  0.69673001    -0.24430
H1419       H  0.03371838  0.03286987  0.56461512     0.04740
H1420       H  0.01480185  0.06441170  0.57526122     0.07970
H1421       H  0.99537995  0.03119402  0.56865700     0.07970
H1422       H  0.04587851  0.00831553  0.70666066     0.07950
H1423       H  0.02602901  0.97613711  0.69690304     0.07950
H1424       H  0.00746721  0.00704290  0.71032432     0.04730
C1425       C  0.61121786  0.05270322  0.03664461    -0.21080
C1426       C  0.63626131  0.05524351  0.01964146    -0.07640
C1427       C  0.66044341  0.03800075  0.02707493     0.13230
C1428       C  0.65797735  0.01764937  0.04955964    -0.21130
C1429       C  0.63209681  0.01343388  0.06500804    -0.07650
C1430       C  0.60870427  0.03206883  0.05885712     0.13210
C1431       C  0.58030744  0.02950831  0.07421403    -0.24480
H1432       H  0.59273021  0.06594588  0.03152792     0.14500
H1433       H  0.67628169  0.00404656  0.05442193     0.14530
C1434       C  0.68903885  0.04047904  0.01156259    -0.24430
H1435       H  0.56448823  0.04577728  0.06676656     0.04740
H1436       H  0.58363253  0.03291119  0.09757150     0.07970
H1437       H  0.57096752  0.00803800  0.07003495     0.07970
H1438       H  0.68697516  0.03330641  0.98879604     0.07950
H1439       H  0.69678681  0.06303776  0.01229336     0.07950
H1440       H  0.70582123  0.02682579  0.02170608     0.04730
C1441       C  0.39347158  0.64161805  0.48407686    -0.21080
C1442       C  0.37465381  0.61923797  0.47675603    -0.07640
C1443       C  0.35769923  0.60688688  0.49917636     0.13230
C1444       C  0.36567997  0.61088077  0.52801469    -0.21130
C1445       C  0.38675771  0.63089843  0.53542303    -0.07650
C1446       C  0.39784157  0.64913881  0.51332491     0.13210
C1447       C  0.41436450  0.67619298  0.51966320    -0.24480
H1448       H  0.40505340  0.65292972  0.46713567     0.14500
H1449       H  0.35541015  0.59820042  0.54485479     0.14530
C1450       C  0.33035296  0.59065111  0.49379212    -0.24430
H1451       H  0.40448217  0.69430119  0.50762671     0.04740
H1452       H  0.43714363  0.67411708  0.51267132     0.07970
H1453       H  0.41334348  0.68207827  0.54277404     0.07970
H1454       H  0.33370471  0.56752399  0.49816312     0.07950
H1455       H  0.32222671  0.59459680  0.47174675     0.07950
H1456       H  0.31318801  0.59861350  0.50854746     0.04730
C1457       C  0.50434212  0.50025078  0.64220079    -0.21080
C1458       C  0.53354835  0.50809381  0.64447197    -0.07640
C1459       C  0.54147144  0.53674118  0.63810331     0.13230
C1460       C  0.52068750  0.55584142  0.62750114    -0.21130
C1461       C  0.49145400  0.54810756  0.62456301    -0.07650
C1462       C  0.48328553  0.51962315  0.63197993     0.13210
C1463       C  0.45284995  0.50870325  0.62991821    -0.24480
H1464       H  0.49803953  0.47837297  0.64725239     0.14500
H1465       H  0.52706063  0.57785738  0.62315756     0.14530
C1466       C  0.57116561  0.54826704  0.64479327    -0.24430
H1467       H  0.45230302  0.48936731  0.61589602     0.04740
H1468       H  0.43798824  0.52448039  0.62046255     0.07970
H1469       H  0.44484751  0.50277753  0.65178314     0.07970
H1470       H  0.58804004  0.53618878  0.63326206     0.07950
H1471       H  0.57522788  0.54681627  0.66833558     0.07950
H1472       H  0.57346207  0.57119031  0.63852072     0.04730
C1473       C  0.47110228  0.41687490  0.60928121    -0.21080
C1474       C  0.46113663  0.38992221  0.61794360    -0.07640
C1475       C  0.48092710  0.37040290  0.63033608     0.13230
C1476       C  0.51012341  0.37891083  0.63424144    -0.21130
C1477       C  0.52047282  0.40499082  0.62255073    -0.07650
C1478       C  0.50041846  0.42333984  0.60833473     0.13210
C1479       C  0.50918846  0.44876207  0.58981258    -0.24480
H1480       H  0.45617168  0.43176763  0.59951320     0.14500
H1481       H  0.52508809  0.36461074  0.64494504     0.14530
C1482       C  0.47115328  0.34095843  0.63942388    -0.24430
H1483       H  0.52180171  0.46451765  0.60225679     0.04740
H1484       H  0.52226039  0.44111732  0.57119390     0.07970
H1485       H  0.49035825  0.46036422  0.58073858     0.07970
H1486       H  0.46302193  0.32898071  0.62036766     0.07950
H1487       H  0.45358468  0.34282639  0.65568884     0.07950
H1488       H  0.48905651  0.32845006  0.64912068     0.04730
C1489       C  0.37993486  0.48017431  0.49584745    -0.21080
C1490       C  0.35446074  0.47437194  0.51110298    -0.07640
C1491       C  0.32891343  0.48986171  0.50433181     0.13230
C1492       C  0.32983184  0.51038495  0.48238590    -0.21130
C1493       C  0.35490636  0.51508346  0.46640142    -0.07650
C1494       C  0.38072269  0.50089450  0.47414448     0.13210
C1495       C  0.40962284  0.50885037  0.46130431    -0.24480
H1496       H  0.39969999  0.46920647  0.50161854     0.14500
H1497       H  0.31081165  0.52288610  0.47777031     0.14530
C1498       C  0.30038491  0.48513854  0.51950225    -0.24430
H1499       H  0.42758300  0.49685616  0.47155645     0.04740
H1500       H  0.41374920  0.53209188  0.46456320     0.07970
H1501       H  0.41023405  0.50386905  0.43803018     0.07970
H1502       H  0.30207556  0.49135184  0.54260200     0.07950
H1503       H  0.29377202  0.46229348  0.51751339     0.07950
H1504       H  0.28288100  0.49833419  0.50997546     0.04730
C1505       C  0.37784602  0.49496320  0.64242542    -0.21080
C1506       C  0.37968892  0.48972475  0.61250408    -0.07640
C1507       C  0.38137305  0.51374199  0.59356657     0.13230
C1508       C  0.38013405  0.54156679  0.60464549    -0.21130
C1509       C  0.38300320  0.54684579  0.63423680    -0.07650
C1510       C  0.38073208  0.52323018  0.65357200     0.13210
C1511       C  0.38177255  0.52773250  0.68577396    -0.24480
H1512       H  0.37664299  0.47686078  0.65711495     0.14500
H1513       H  0.38173676  0.55928408  0.58952154     0.14530
C1514       C  0.38746269  0.51174526  0.56165712    -0.24430
H1515       H  0.37823704  0.50731526  0.69770845     0.04740
H1516       H  0.36465759  0.54306934  0.69233235     0.07970
H1517       H  0.40309206  0.53631367  0.69228268     0.07970
H1518       H  0.36852744  0.51957369  0.54935549     0.07950
H1519       H  0.39327457  0.49004227  0.55461303     0.07950
H1520       H  0.40634523  0.52543576  0.55610268     0.04730
C1521       C  0.60692796  0.53470684  0.75025185    -0.21080
C1522       C  0.63408295  0.54280148  0.76073519    -0.07640
C1523       C  0.65898934  0.52932128  0.74964469     0.13230
C1524       C  0.65601461  0.50859913  0.72763634    -0.21130
C1525       C  0.62872224  0.50079901  0.71690534    -0.07650
C1526       C  0.60385907  0.51339476  0.72920609     0.13210
C1527       C  0.57396340  0.50342289  0.72162668    -0.24480
H1528       H  0.58778056  0.54471775  0.75921063     0.14500
H1529       H  0.67503841  0.49840433  0.71878428     0.14530
C1530       C  0.68853977  0.53714993  0.76045592    -0.24430
H1531       H  0.55718892  0.51416989  0.73495291     0.04740
H1532       H  0.57205684  0.47992081  0.72523061     0.07970
H1533       H  0.56948081  0.50856861  0.69884350     0.07970
H1534       H  0.69017885  0.53212691  0.78385833     0.07950
H1535       H  0.69248641  0.56040674  0.75710452     0.07950
H1536       H  0.70569639  0.52506385  0.74890489     0.04730
C1537       C  0.54857301  0.63924020  0.73669630    -0.21080
C1538       C  0.54264561  0.65232894  0.76329428    -0.07640
C1539       C  0.51636998  0.66722484  0.76705890     0.13230
C1540       C  0.49632468  0.66739290  0.74429094    -0.21130
C1541       C  0.50173027  0.65260640  0.71824298    -0.07650
C1542       C  0.52897594  0.63896170  0.71419479     0.13210
C1543       C  0.53898139  0.62236684  0.68767561    -0.24480
H1544       H  0.56890453  0.62823508  0.73330571     0.14500
H1545       H  0.47567830  0.67780053  0.74753214     0.14530
C1546       C  0.50877570  0.68197582  0.79505957    -0.24430
H1547       H  0.56140821  0.62885008  0.68210955     0.04740
H1548       H  0.52684364  0.62597279  0.66761755     0.07970
H1549       H  0.53903065  0.59901919  0.69259295     0.07970
H1550       H  0.52502900  0.69880740  0.79992085     0.07950
H1551       H  0.50804154  0.66605080  0.81294508     0.07950
H1552       H  0.48735139  0.69252352  0.79400274     0.04730
C1553       C  0.25369473  0.52073585  0.35197294    -0.21080
C1554       C  0.26979451  0.52789750  0.37655774    -0.07640
C1555       C  0.26136837  0.51634329  0.40374957     0.13230
C1556       C  0.23990094  0.49537104  0.40496171    -0.21130
C1557       C  0.22677931  0.48541091  0.37982421    -0.07650
C1558       C  0.23217511  0.49963771  0.35320364     0.13210
C1559       C  0.21560582  0.49282136  0.32599242    -0.24480
H1560       H  0.25883928  0.53062137  0.33136051     0.14500
H1561       H  0.23507153  0.48505631  0.42545433     0.14530
C1562       C  0.27562299  0.52451019  0.43161332    -0.24430
H1563       H  0.22027651  0.50858841  0.30854262     0.04740
H1564       H  0.19207253  0.49356321  0.33050243     0.07970
H1565       H  0.22164318  0.47138815  0.31752887     0.07970
H1566       H  0.27524774  0.54814542  0.43452644     0.07950
H1567       H  0.29796808  0.51631298  0.43109254     0.07950
H1568       H  0.26476384  0.51474264  0.45070031     0.04730
C1569       C  0.24582396  0.36596507  0.48583108    -0.21080
C1570       C  0.25091969  0.38117935  0.45978142    -0.07640
C1571       C  0.27744584  0.39595643  0.45699307     0.13230
C1572       C  0.29756348  0.39519928  0.48010482    -0.21130
C1573       C  0.29178965  0.38051453  0.50641768    -0.07650
C1574       C  0.26503182  0.36605655  0.50912067     0.13210
C1575       C  0.25551043  0.35135292  0.53672095    -0.24480
H1576       H  0.22579715  0.35432514  0.48876253     0.14500
H1577       H  0.31785036  0.40652868  0.47764912     0.14530
C1578       C  0.28467056  0.41251969  0.42996727    -0.24430
H1579       H  0.23349605  0.34208206  0.53503348     0.04740
H1580       H  0.25497735  0.36718567  0.55463697     0.07970
H1581       H  0.27025505  0.33341391  0.54207080     0.07970
H1582       H  0.26873461  0.42999253  0.42677564     0.07950
H1583       H  0.28434476  0.39790542  0.41101104     0.07950
H1584       H  0.30642056  0.42246101  0.43119657     0.04730
C1585       C  0.54944723  0.72849026  0.62484985    -0.21080
C1586       C  0.54089948  0.75703306  0.62022874    -0.07640
C1587       C  0.51112685  0.76375460  0.62126258     0.13230
C1588       C  0.49104854  0.74201821  0.62798270    -0.21130
C1589       C  0.49994432  0.71382894  0.63395606    -0.07650
C1590       C  0.52956100  0.70709087  0.63227312     0.13210
C1591       C  0.54074574  0.67825437  0.64128982    -0.24480
H1592       H  0.57222441  0.72323666  0.62446854     0.14500
H1593       H  0.46823250  0.74705122  0.62855664     0.14530
C1594       C  0.50033986  0.79374693  0.61629986    -0.24430
H1595       H  0.56461772  0.67692793  0.63975671     0.04740
H1596       H  0.53167657  0.66093369  0.62769493     0.07970
H1597       H  0.53458463  0.67499637  0.66418737     0.07970
H1598       H  0.50621628  0.80064700  0.59409250     0.07950
H1599       H  0.50993509  0.80845118  0.63246914     0.07950
H1600       H  0.47650822  0.79515578  0.61841205     0.04730
C1601       C  0.62058750  0.73850613  0.72167836    -0.21080
C1602       C  0.64226728  0.75963922  0.72128138    -0.07640
C1603       C  0.66333841  0.75948723  0.74323557     0.13230
C1604       C  0.66181741  0.73846546  0.76502874    -0.21130
C1605       C  0.63939665  0.71798092  0.76597891    -0.07650
C1606       C  0.61874123  0.71793338  0.74357953     0.13210
C1607       C  0.59468519  0.69635327  0.74208622    -0.24480
H1608       H  0.60433445  0.73831131  0.70489075     0.14500
H1609       H  0.67801540  0.73851264  0.78185716     0.14530
C1610       C  0.68745061  0.78114053  0.74394461    -0.24430
H1611       H  0.58162570  0.69862209  0.72211682     0.04740
H1612       H  0.57993450  0.69969448  0.76068166     0.07970
H1613       H  0.60373893  0.67430533  0.74220807     0.07970
H1614       H  0.67838052  0.80287084  0.74737694     0.07950
H1615       H  0.69978483  0.78047619  0.72332561     0.07950
H1616       H  0.70271835  0.77687528  0.76188784     0.04730
C1617       C  0.23245106  0.26225723  0.38289747    -0.21080
C1618       C  0.23861054  0.29149451  0.38442590    -0.07640
C1619       C  0.26739892  0.30070640  0.38941228     0.13230
C1620       C  0.28935020  0.28015467  0.39185672    -0.21130
C1621       C  0.28298926  0.25082681  0.39078129    -0.07650
C1622       C  0.25418784  0.24188197  0.38653395     0.13210
C1623       C  0.24648966  0.21086604  0.38400752    -0.24480
H1624       H  0.21034959  0.25532375  0.37966191     0.14500
H1625       H  0.31145993  0.28704390  0.39508615     0.14530
C1626       C  0.27590128  0.33184776  0.39201981    -0.24430
H1627       H  0.22299697  0.20745960  0.38125916     0.04740
H1628       H  0.25336489  0.19884393  0.40351246     0.07970
H1629       H  0.25751477  0.20288135  0.36448587     0.07970
H1630       H  0.28516127  0.33580553  0.41377899     0.07950
H1631       H  0.25763267  0.34669336  0.38895413     0.07950
H1632       H  0.29240778  0.33711613  0.37537796     0.04730
C1633       C  0.38698078  0.28474194  0.50502212    -0.21080
C1634       C  0.35994854  0.29766244  0.50840999    -0.07640
C1635       C  0.33765120  0.29086187  0.48892187     0.13230
C1636       C  0.34300882  0.27114019  0.46643241    -0.21130
C1637       C  0.37022493  0.25815070  0.46307125    -0.07650
C1638       C  0.39251701  0.26519046  0.48277184     0.13210
C1639       C  0.42264537  0.25320488  0.48008111    -0.24480
H1640       H  0.40425760  0.29067636  0.51961796     0.14500
H1641       H  0.32579095  0.26559107  0.45165239     0.14530
C1642       C  0.30867278  0.30497003  0.49130759    -0.24430
H1643       H  0.43768081  0.26320864  0.49578811     0.04740
H1644       H  0.43125830  0.25745520  0.45807946     0.07970
H1645       H  0.42261463  0.22980321  0.48452944     0.07970
H1646       H  0.31130460  0.32843383  0.48849544     0.07950
H1647       H  0.29913422  0.30035768  0.51285749     0.07950
H1648       H  0.29353736  0.29715776  0.47447933     0.04730
C1649       C  0.35707362  0.14217897  0.24047490    -0.21080
C1650       C  0.37884416  0.12169727  0.23561516    -0.07640
C1651       C  0.38976797  0.10639765  0.25984519     0.13230
C1652       C  0.38246496  0.11567803  0.28789579    -0.21130
C1653       C  0.36573244  0.14025051  0.29214453    -0.07650
C1654       C  0.35088854  0.15204232  0.26842225     0.13210
C1655       C  0.33013228  0.17652451  0.27234663    -0.24480
H1656       H  0.34711374  0.15291889  0.22228168     0.14500
H1657       H  0.39214614  0.10555251  0.30644986     0.14530
C1658       C  0.41046727  0.08165819  0.25676700    -0.24430
H1659       H  0.31959388  0.18258864  0.25169763     0.04740
H1660       H  0.34185731  0.19557640  0.28040288     0.07970
H1661       H  0.31302293  0.17029701  0.28799941     0.07970
H1662       H  0.43182639  0.08945485  0.24919936     0.07950
H1663       H  0.40166382  0.06562923  0.24137195     0.07950
H1664       H  0.41391871  0.07056061  0.27773432     0.04730
C1665       C  0.51861762  0.04850065  0.15711501    -0.21080
C1666       C  0.49038132  0.04220699  0.14915047    -0.07640
C1667       C  0.48448083  0.01826115  0.13139184     0.13230
C1668       C  0.50707557  0.00047336  0.12273074    -0.21130
C1669       C  0.53541879  0.00636453  0.13103309    -0.07650
C1670       C  0.54146826  0.03130617  0.14783738     0.13210
C1671       C  0.57140259  0.04175820  0.15542303    -0.24480
H1672       H  0.52303878  0.06785210  0.16939467     0.14500
H1673       H  0.50242172  0.98128134  0.11031475     0.14530
C1674       C  0.45425358  0.01091455  0.12226173    -0.24430
H1675       H  0.57453568  0.06365393  0.14638963     0.04740
H1676       H  0.58910591  0.02844523  0.14676069     0.07970
H1677       H  0.57367720  0.04316563  0.17924724     0.07970
H1678       H  0.44511753  0.02841434  0.10885834     0.07950
H1679       H  0.44088016  0.00772463  0.14187287     0.07950
H1680       H  0.45339755  0.99084033  0.10932869     0.04730
C1681       C  0.53832469  0.14678285  0.02785460    -0.21080
C1682       C  0.53373046  0.12277890  0.00984525    -0.07640
C1683       C  0.50832262  0.10638702  0.01285543     0.13230
C1684       C  0.48793680  0.11480361  0.03350472    -0.21130
C1685       C  0.49238807  0.13918164  0.05072961    -0.07650
C1686       C  0.51786999  0.15518661  0.04830886     0.13210
C1687       C  0.52385072  0.18038226  0.06785333    -0.24480
H1688       H  0.55800326  0.15923966  0.02578682     0.14500
H1689       H  0.46834673  0.10232090  0.03629764     0.14530
C1690       C  0.50215829  0.08071691  0.99404762    -0.24430
H1691       H  0.54547936  0.18974314  0.06366429     0.04740
H1692       H  0.52316468  0.17335509  0.09079328     0.07970
H1693       H  0.50743765  0.19736205  0.06440254     0.07970
H1694       H  0.51881281  0.06398203  0.99751881     0.07950
H1695       H  0.50192702  0.08722282  0.97093617     0.07950
H1696       H  0.48092501  0.07103362  0.99923281     0.04730
C1697       C  0.37326392  0.60973893  0.24180404    -0.21080
C1698       C  0.35592050  0.63275174  0.23383428    -0.07640
C1699       C  0.35060766  0.65481241  0.25422793     0.13230
C1700       C  0.35302483  0.64808691  0.28368398    -0.21130
C1701       C  0.36636185  0.62248981  0.29177439    -0.07650
C1702       C  0.38156228  0.60674589  0.27056677     0.13210
C1703       C  0.40796151  0.58928367  0.27722081    -0.24480
H1704       H  0.38089888  0.59475635  0.22577613     0.14500
H1705       H  0.34442196  0.66239119  0.30003842     0.14530
C1706       C  0.34320259  0.68496643  0.24519701    -0.24430
H1707       H  0.42620771  0.59724822  0.26380289     0.04740
H1708       H  0.40457646  0.56633008  0.27199409     0.07970
H1709       H  0.41467833  0.59181490  0.30004365     0.07970
H1710       H  0.32348989  0.68566124  0.23212582     0.07950
H1711       H  0.36119413  0.69388477  0.23206065     0.07950
H1712       H  0.34000156  0.69914341  0.26423962     0.04730
C1713       C  0.20619734  0.61153643  0.02562442    -0.21080
C1714       C  0.20419825  0.63144838  0.00306415    -0.07640
C1715       C  0.22519391  0.65353642  0.00116621     0.13230
C1716       C  0.24750252  0.65496403  0.02157190    -0.21130
C1717       C  0.25008640  0.63476138  0.04396336    -0.07650
C1718       C  0.22881136  0.61270002  0.04594785     0.13210
C1719       C  0.22926186  0.59035744  0.06937558    -0.24480
H1720       H  0.18996491  0.59489184  0.02730303     0.14500
H1721       H  0.26342774  0.67191704  0.01961208     0.14530
C1722       C  0.22480705  0.67559973  0.97745008    -0.24430
H1723       H  0.21068384  0.57533256  0.06791633     0.04740
H1724       H  0.22810122  0.60104402  0.09076488     0.07970
H1725       H  0.24920088  0.57736426  0.06745789     0.07970
H1726       H  0.20399168  0.68711744  0.97756817     0.07950
H1727       H  0.22845778  0.66487846  0.95649347     0.07950
H1728       H  0.24213906  0.69189065  0.97997678     0.04730
C1729       C  0.36052490  0.25191790  0.64744797    -0.21080
C1730       C  0.36012606  0.23067931  0.62594805    -0.07640
C1731       C  0.37368707  0.23611361  0.59920497     0.13230
C1732       C  0.38479171  0.26347438  0.59352932    -0.21130
C1733       C  0.38160399  0.28601097  0.61351142    -0.07650
C1734       C  0.37104211  0.27963533  0.64157002     0.13210
C1735       C  0.37032171  0.30142541  0.66560675    -0.24480
H1736       H  0.35157188  0.24721442  0.66862101     0.14500
H1737       H  0.39344361  0.26782563  0.57216837     0.14530
C1738       C  0.37539919  0.21358526  0.57607632    -0.24430
H1739       H  0.34759985  0.30628592  0.67144757     0.04740
H1740       H  0.38160737  0.32164153  0.65985070     0.07970
H1741       H  0.38141723  0.29253709  0.68487488     0.07970
H1742       H  0.35328219  0.20849263  0.56886978     0.07950
H1743       H  0.38610078  0.19406495  0.58466607     0.07950
H1744       H  0.38778737  0.22106056  0.55687573     0.04730
C1745       C  0.34220151  0.16463425  0.52776211    -0.21080
C1746       C  0.35924808  0.14404378  0.54196530    -0.07640
C1747       C  0.37780452  0.12696371  0.52473620     0.13230
C1748       C  0.37968314  0.13219185  0.49438786    -0.21130
C1749       C  0.36235155  0.15313217  0.48059894    -0.07650
C1750       C  0.34296105  0.16925455  0.49813011     0.13210
C1751       C  0.32266936  0.19213464  0.48675147    -0.24480
H1752       H  0.32672347  0.17716086  0.53987000     0.14500
H1753       H  0.39463548  0.11979269  0.48141450     0.14530
C1754       C  0.39553955  0.10347469  0.53807352    -0.24430
H1755       H  0.30955581  0.20238880  0.50397084     0.04740
H1756       H  0.30734130  0.18258474  0.47107230     0.07970
H1757       H  0.33504914  0.20986365  0.47678391     0.07970
H1758       H  0.38114222  0.08690154  0.54763877     0.07950
H1759       H  0.40956474  0.11256875  0.55518879     0.07950
H1760       H  0.40949794  0.09278698  0.52177019     0.04730
C1761       C  0.20692985  0.03050033  0.63447531    -0.21080
C1762       C  0.21527757  0.00175593  0.63770621    -0.07640
C1763       C  0.24468961  0.99462625  0.63993602     0.13230
C1764       C  0.26497711  0.01663877  0.64038065    -0.21130
C1765       C  0.25653821  0.04544010  0.63980491    -0.07650
C1766       C  0.22716502  0.05270068  0.63717391     0.13210
C1767       C  0.21684650  0.08327964  0.63988233    -0.24480
H1768       H  0.18439092  0.03560516  0.63155873     0.14500
H1769       H  0.28761121  0.01134680  0.64145954     0.14530
C1770       C  0.25487587  0.96390301  0.64066762    -0.24430
H1771       H  0.19300542  0.08472842  0.63818327     0.04740
H1772       H  0.22633880  0.09701863  0.62283622     0.07970
H1773       H  0.22316539  0.09199873  0.66126578     0.07970
H1774       H  0.24687798  0.95265368  0.62118023     0.07950
H1775       H  0.24682852  0.95288533  0.66038900     0.07950
H1776       H  0.27878087  0.96237815  0.64065091     0.04730
C1777       C  0.51229422  0.27537040  0.36652925    -0.21080
C1778       C  0.50477533  0.30182362  0.37926289    -0.07640
C1779       C  0.47861326  0.30321801  0.39537994     0.13230
C1780       C  0.46093026  0.27864062  0.39767024    -0.21130
C1781       C  0.46870789  0.25237200  0.38499918    -0.07650
C1782       C  0.49501038  0.25075168  0.36938390     0.13210
C1783       C  0.50580657  0.22295942  0.35646334    -0.24480
H1784       H  0.53240007  0.27355043  0.35467322     0.14500
H1785       H  0.44072914  0.27997884  0.40944695     0.14530
C1786       C  0.46918513  0.32995621  0.41100332    -0.24430
H1787       H  0.52794357  0.22518570  0.34745861     0.04740
H1788       H  0.49164713  0.21608657  0.33845689     0.07970
H1789       H  0.50645599  0.20600445  0.37336060     0.07970
H1790       H  0.46794649  0.34832647  0.39586741     0.07950
H1791       H  0.48459656  0.33468309  0.42854153     0.07950
H1792       H  0.44760497  0.32737838  0.42119329     0.04730
C1793       C  0.50211665  0.37099774  0.49737746    -0.21080
C1794       C  0.49956819  0.38222373  0.46947379    -0.07640
C1795       C  0.47675668  0.40193201  0.46361872     0.13230
C1796       C  0.45708183  0.40893242  0.48558959    -0.21130
C1797       C  0.45928579  0.39712214  0.51322108    -0.07650
C1798       C  0.48224423  0.37791451  0.51918511     0.13210
C1799       C  0.48524405  0.36303054  0.54775481    -0.24480
H1800       H  0.51938618  0.35608723  0.50203345     0.14500
H1801       H  0.43898470  0.42288435  0.48086031     0.14530
C1802       C  0.47196064  0.41528218  0.43427762    -0.24430
H1803       H  0.50547980  0.35041203  0.54916682     0.04740
H1804       H  0.46723667  0.34764468  0.55049705     0.07970
H1805       H  0.48576365  0.37916640  0.56521806     0.07970
H1806       H  0.46970548  0.39829172  0.41762268     0.07950
H1807       H  0.49015368  0.42981970  0.42885113     0.07950
H1808       H  0.45204642  0.42848859  0.43364877     0.04730
C1809       C  0.59092433  0.37252668  0.50528871    -0.21080
C1810       C  0.60901216  0.38175758  0.48279635    -0.07640
C1811       C  0.63638057  0.39323379  0.48946628     0.13230
C1812       C  0.64285695  0.39962475  0.51847980    -0.21130
C1813       C  0.62260047  0.39435068  0.54055462    -0.07650
C1814       C  0.59739866  0.37865997  0.53415490     0.13210
C1815       C  0.57663388  0.36963177  0.55761812    -0.24480
H1816       H  0.57050858  0.36251779  0.50009868     0.14500
H1817       H  0.66260406  0.41107528  0.52346496     0.14530
C1818       C  0.65878003  0.39920626  0.46664091    -0.24430
H1819       H  0.55881580  0.35629631  0.54889777     0.04740
H1820       H  0.56690866  0.38870689  0.56806078     0.07970
H1821       H  0.58820153  0.35672960  0.57410620     0.07970
H1822       H  0.66563983  0.42198160  0.46765643     0.07950
H1823       H  0.65088715  0.39440764  0.44454131     0.07950
H1824       H  0.67796977  0.38560876  0.47073859     0.04730
C1825       C  0.47772207  0.46103282  0.36789423    -0.21080
C1826       C  0.50448966  0.47095355  0.35788050    -0.07640
C1827       C  0.50662481  0.49929226  0.34726580     0.13230
C1828       C  0.48227197  0.51737686  0.34871009    -0.21130
C1829       C  0.45582597  0.50794951  0.36076463    -0.07650
C1830       C  0.45345572  0.47876355  0.36930868     0.13210
C1831       C  0.42571828  0.46553366  0.37988457    -0.24480
H1832       H  0.47596128  0.43927303  0.37579468     0.14500
H1833       H  0.48439911  0.53942293  0.34151295     0.14530
C1834       C  0.53477760  0.51098945  0.33589799    -0.24430
H1835       H  0.42762568  0.44197619  0.38315451     0.04740
H1836       H  0.40878866  0.46901585  0.36363988     0.07970
H1837       H  0.41924165  0.47485631  0.40083759     0.07970
H1838       H  0.54161296  0.49858479  0.31658770     0.07950
H1839       H  0.55165715  0.50937811  0.35280817     0.07950
H1840       H  0.53290699  0.53388991  0.32945196     0.04730
C1841       C  0.51161371  0.64493479  0.39927810    -0.21080
C1842       C  0.53235533  0.62286529  0.39967186    -0.07640
C1843       C  0.52344423  0.59434622  0.39399688     0.13230
C1844       C  0.49407526  0.58824239  0.39139688    -0.21130
C1845       C  0.47307765  0.60974570  0.39363527    -0.07650
C1846       C  0.48195171  0.63867586  0.39607157     0.13210
C1847       C  0.46022304  0.66259814  0.39711553    -0.24480
H1848       H  0.51831323  0.66677334  0.40380943     0.14500
H1849       H  0.48735700  0.56616404  0.38835839     0.14530
C1850       C  0.54467386  0.56991291  0.39133362    -0.24430
H1851       H  0.47076463  0.68381904  0.40009269     0.04740
H1852       H  0.44504828  0.65906627  0.41540804     0.07970
H1853       H  0.44797139  0.66326417  0.37654705     0.07970
H1854       H  0.55511738  0.56528938  0.41230866     0.07950
H1855       H  0.56128237  0.57529618  0.37487217     0.07950
H1856       H  0.53388116  0.54975024  0.38456899     0.04730
C1857       C  0.51302939  0.63821551  0.49796035    -0.21080
C1858       C  0.53951921  0.64919140  0.50709915    -0.07640
C1859       C  0.54431758  0.65543180  0.53649815     0.13230
C1860       C  0.52111983  0.65338935  0.55570417    -0.21130
C1861       C  0.49434921  0.64313926  0.54639779    -0.07650
C1862       C  0.49061888  0.63395881  0.51760997     0.13210
C1863       C  0.46390597  0.61901639  0.50702388    -0.24480
H1864       H  0.51018454  0.63193152  0.47554125     0.14500
H1865       H  0.52378248  0.65989553  0.57798653     0.14530
C1866       C  0.57352127  0.66426680  0.54761710    -0.24430
H1867       H  0.46971284  0.59737333  0.49884331     0.04740
H1868       H  0.45433467  0.63141026  0.48895841     0.07970
H1869       H  0.44763726  0.61610230  0.52428642     0.07970
H1870       H  0.58080394  0.68411551  0.53668034     0.07950
H1871       H  0.58941033  0.64692436  0.54353773     0.07950
H1872       H  0.57306526  0.66846281  0.57126461     0.04730
C1873       C  0.64218628  0.55936390  0.53807531    -0.21080
C1874       C  0.65760076  0.55426565  0.51252760    -0.07640
C1875       C  0.67457362  0.52910225  0.51012286     0.13230
C1876       C  0.67235207  0.50810625  0.53175430    -0.21130
C1877       C  0.65372228  0.51168537  0.55548094    -0.07650
C1878       C  0.63968505  0.53840912  0.55943542     0.13210
C1879       C  0.62099441  0.54506011  0.58526293    -0.24480
H1880       H  0.63039328  0.57929078  0.54062011     0.14500
H1881       H  0.68394639  0.48807567  0.52918150     0.14530
C1882       C  0.69432868  0.52356805  0.48474888    -0.24430
H1883       H  0.61431722  0.56795303  0.58580995     0.04740
H1884       H  0.63291761  0.54065754  0.60552470     0.07970
H1885       H  0.60095184  0.53207226  0.58430928     0.07970
H1886       H  0.71068581  0.54094361  0.48323054     0.07950
H1887       H  0.68189925  0.52249709  0.46437966     0.07950
H1888       H  0.70603728  0.50290477  0.48700806     0.04730
C1889       C  0.63155706  0.51575578  0.42730477    -0.21080
C1890       C  0.63060519  0.53657106  0.40553318    -0.07640
C1891       C  0.62789862  0.52775376  0.37649218     0.13230
C1892       C  0.62309441  0.49828626  0.37038254    -0.21130
C1893       C  0.62127506  0.47778867  0.39285164    -0.07650
C1894       C  0.62774106  0.48669975  0.42140232     0.13210
C1895       C  0.62877411  0.46641180  0.44676143    -0.24480
H1896       H  0.63379264  0.52241957  0.44966182     0.14500
H1897       H  0.61803119  0.49180562  0.34848245     0.14530
C1898       C  0.62817534  0.54946506  0.35244912    -0.24430
H1899       H  0.64931010  0.46960593  0.45860518     0.04740
H1900       H  0.62784217  0.44367598  0.43995148     0.07970
H1901       H  0.61052487  0.47087510  0.46172400     0.07970
H1902       H  0.64911028  0.56107931  0.35237849     0.07950
H1903       H  0.61045922  0.56513242  0.35563256     0.07950
H1904       H  0.62535451  0.53910682  0.33101849     0.04730
C1905       C  0.65524300  0.72341611  0.52203449    -0.21080
C1906       C  0.63048076  0.71794146  0.50573366    -0.07640
C1907       C  0.60507863  0.73366589  0.51208303     0.13230
C1908       C  0.60441383  0.75244116  0.53590309    -0.21130
C1909       C  0.62881358  0.75715898  0.55311287    -0.07650
C1910       C  0.65496930  0.74317038  0.54515880     0.13210
C1911       C  0.68322994  0.75032850  0.55925156    -0.24480
H1912       H  0.67506251  0.71245307  0.51633234     0.14500
H1913       H  0.58467944  0.76389259  0.54087810     0.14530
C1914       C  0.57885119  0.73182769  0.49316745    -0.24430
H1915       H  0.70150533  0.73846986  0.54930335     0.04740
H1916       H  0.68262031  0.74447052  0.58235789     0.07970
H1917       H  0.68763614  0.77360950  0.55666306     0.07970
H1918       H  0.56954050  0.71012644  0.49455389     0.07950
H1919       H  0.58476158  0.73695129  0.47047397     0.07950
H1920       H  0.56181890  0.74714285  0.50002438     0.04730
C1921       C  0.38665727  0.28376765  0.13596545    -0.21080
C1922       C  0.39159477  0.28841711  0.16561121    -0.07640
C1923       C  0.39953105  0.26514924  0.18350432     0.13230
C1924       C  0.40096764  0.23771663  0.17156096    -0.21130
C1925       C  0.39602069  0.23299308  0.14205877    -0.07650
C1926       C  0.38949142  0.25625904  0.12381352     0.13210
C1927       C  0.38474572  0.25188053  0.09195147    -0.24480
H1928       H  0.38046983  0.30168579  0.12236734     0.14500
H1929       H  0.40642796  0.21974026  0.18540096     0.14530
C1930       C  0.40547330  0.26862457  0.21540040    -0.24430
H1931       H  0.37915574  0.27230744  0.08091022     0.04740
H1932       H  0.36681406  0.23641750  0.08860086     0.07970
H1933       H  0.40467193  0.24329544  0.08180948     0.07970
H1934       H  0.38610226  0.27715995  0.22652541     0.07950
H1935       H  0.42403547  0.28333761  0.21866051     0.07950
H1936       H  0.41098782  0.24787008  0.22585440     0.04730
C1937       C  0.39050842  0.50860389  0.17219840    -0.21080
C1938       C  0.37153625  0.48569865  0.16577074    -0.07640
C1939       C  0.34590995  0.49210312  0.15002759     0.13230
C1940       C  0.33961273  0.52052939  0.14278432    -0.21130
C1941       C  0.35755693  0.54337958  0.15044711    -0.07650
C1942       C  0.38397722  0.53733231  0.16419910     0.13210
C1943       C  0.40504278  0.56105872  0.17027580    -0.24480
H1944       H  0.41031411  0.50409562  0.18368120     0.14500
H1945       H  0.31939813  0.52518615  0.13214642     0.14530
C1946       C  0.32366079  0.46976434  0.14186605    -0.24430
H1947       H  0.42422546  0.55311844  0.18214252     0.04740
H1948       H  0.39455656  0.57799183  0.18327268     0.07970
H1949       H  0.41238406  0.57066424  0.14953048     0.07970
H1950       H  0.31519126  0.45902930  0.16159415     0.07950
H1951       H  0.33331155  0.45386982  0.12684835     0.07950
H1952       H  0.30483115  0.47921310  0.13054361     0.04730
C1953       C  0.35686794  0.48888095  0.25898389    -0.21080
C1954       C  0.36047372  0.46070213  0.26928899    -0.07640
C1955       C  0.36524360  0.45648271  0.29913407     0.13230
C1956       C  0.36712332  0.48063325  0.31748083    -0.21130
C1957       C  0.36560698  0.50887357  0.30668094    -0.07650
C1958       C  0.35855453  0.51275777  0.27720874     0.13210
C1959       C  0.35009271  0.54116642  0.26436422    -0.24480
H1960       H  0.35232911  0.49251264  0.23627261     0.14500
H1961       H  0.36920142  0.47750800  0.34050239     0.14530
C1962       C  0.36734766  0.42678438  0.31183271    -0.24430
H1963       H  0.32790375  0.53960574  0.25553684     0.04740
H1964       H  0.36497990  0.54668199  0.24635444     0.07970
H1965       H  0.34993008  0.55864330  0.28035074     0.07970
H1966       H  0.38642803  0.41552018  0.30283451     0.07950
H1967       H  0.34751963  0.41440184  0.30671408     0.07950
H1968       H  0.36974100  0.42743874  0.33571607     0.04730
C1969       C  0.27590284  0.35460101  0.27218665    -0.21080
C1970       C  0.28227865  0.38236939  0.26183734    -0.07640
C1971       C  0.27331454  0.40629352  0.27832946     0.13230
C1972       C  0.25884343  0.40166327  0.30486938    -0.21130
C1973       C  0.25265789  0.37373333  0.31494992    -0.07650
C1974       C  0.26149743  0.34997369  0.29832817     0.13210
C1975       C  0.25595049  0.31948512  0.30803869    -0.24480
H1976       H  0.28252811  0.33606202  0.25967217     0.14500
H1977       H  0.25086025  0.41993452  0.31696361     0.14530
C1978       C  0.27867244  0.43649776  0.26813736    -0.24430
H1979       H  0.26451430  0.30377772  0.29227210     0.04740
H1980       H  0.23257657  0.31497442  0.30991858     0.07970
H1981       H  0.26653183  0.31566979  0.32914770     0.07970
H1982       H  0.26813709  0.43990922  0.24689289     0.07950
H1983       H  0.30212394  0.44030643  0.26605298     0.07950
H1984       H  0.26988581  0.45257225  0.28354441     0.04730
C1985       C  0.39888098  0.28417554  0.30973928    -0.21080
C1986       C  0.37361535  0.26722361  0.31249499    -0.07640
C1987       C  0.34772173  0.27798350  0.30065052     0.13230
C1988       C  0.34826721  0.30405110  0.28523776    -0.21130
C1989       C  0.37408430  0.31933285  0.28007807    -0.07650
C1990       C  0.39949330  0.30965589  0.29338569     0.13210
C1991       C  0.42755583  0.32524960  0.28918228    -0.24480
H1992       H  0.41887962  0.27681824  0.31922256     0.14500
H1993       H  0.32866206  0.31136763  0.27490140     0.14530
C1994       C  0.31959249  0.26194060  0.30312743    -0.24430
H1995       H  0.44551743  0.31484726  0.30105299     0.04740
H1996       H  0.42507055  0.34731636  0.29759189     0.07970
H1997       H  0.43336992  0.32590391  0.26588928     0.07970
H1998       H  0.31359023  0.25921283  0.32620675     0.07950
H1999       H  0.32131602  0.24075307  0.29241511     0.07950
H2000       H  0.30186716  0.27346934  0.29222736     0.04730
C2001       C  0.46115721  0.39219920  0.28840973    -0.21080
C2002       C  0.47054561  0.39208626  0.25962079    -0.07640
C2003       C  0.49978849  0.38788172  0.25300233     0.13230
C2004       C  0.51918000  0.38333026  0.27565094    -0.21130
C2005       C  0.50956063  0.38212648  0.30451077    -0.07650
C2006       C  0.48008281  0.38586377  0.31090773     0.13210
C2007       C  0.46808644  0.38041790  0.34070700    -0.24480
H2008       H  0.43845474  0.39537997  0.29309865     0.14500
H2009       H  0.54192940  0.38091652  0.27082547     0.14530
C2010       C  0.51041261  0.38865979  0.22230503    -0.24430
H2011       H  0.44433282  0.38338564  0.34155070     0.04740
H2012       H  0.47781412  0.39506512  0.35670075     0.07970
H2013       H  0.47287727  0.35790483  0.34685276     0.07970
H2014       H  0.50526871  0.40975732  0.21238891     0.07950
H2015       H  0.49957097  0.37148078  0.21000603     0.07950
H2016       H  0.53407275  0.38519870  0.22086155     0.04730
C2017       C  0.20216937  0.52947129  0.13943968    -0.21080
C2018       C  0.20848681  0.50406961  0.12500546    -0.07640
C2019       C  0.23510010  0.50106821  0.11042223     0.13230
C2020       C  0.25483666  0.52403182  0.11040773    -0.21130
C2021       C  0.24879905  0.54968892  0.12521820    -0.07650
C2022       C  0.22189821  0.55220761  0.14020362     0.13210
C2023       C  0.21334986  0.57829439  0.15759788    -0.24480
H2024       H  0.18147943  0.53148143  0.15022997     0.14500
H2025       H  0.27520036  0.52173104  0.09909993     0.14530
C2026       C  0.24296428  0.47341613  0.09558215    -0.24430
H2027       H  0.19175827  0.57572845  0.16773219     0.04740
H2028       H  0.21230588  0.59752617  0.14345556     0.07970
H2029       H  0.22894490  0.58173317  0.17542640     0.07970
H2030       H  0.22701031  0.46842067  0.07848876     0.07950
H2031       H  0.24318447  0.45577587  0.11171650     0.07950
H2032       H  0.26464668  0.47456418  0.08536015     0.04730
C2033       C  0.24158968  0.39407018  0.10810662    -0.21080
C2034       C  0.21826096  0.39066461  0.12750600    -0.07640
C2035       C  0.22297888  0.37642382  0.15415137     0.13230
C2036       C  0.25113568  0.36898447  0.16172220    -0.21130
C2037       C  0.27476004  0.37653707  0.14418938    -0.07650
C2038       C  0.26992472  0.38789015  0.11643424     0.13210
C2039       C  0.29443409  0.39397613  0.09583340    -0.24480
H2040       H  0.23807440  0.40389673  0.08716427     0.14500
H2041       H  0.25492796  0.35980551  0.18293441     0.14530
C2042       C  0.19924247  0.37066810  0.17583518    -0.24430
H2043       H  0.28650343  0.40141648  0.07446735     0.04740
H2044       H  0.30720450  0.37411954  0.09239066     0.07970
H2045       H  0.30859012  0.41104549  0.10458943     0.07970
H2046       H  0.20706985  0.35820361  0.19473229     0.07950
H2047       H  0.19064168  0.39122241  0.18433625     0.07950
H2048       H  0.18176041  0.35801632  0.16555937     0.04730
C2049       C  0.14921334  0.41656774  0.23515673    -0.21080
C2050       C  0.11929102  0.41305987  0.23180360    -0.07640
C2051       C  0.10264207  0.40383214  0.25566620     0.13230
C2052       C  0.11652538  0.39742074  0.28190907    -0.21130
C2053       C  0.14661029  0.40037245  0.28509412    -0.07650
C2054       C  0.16308744  0.41055950  0.26136397     0.13210
C2055       C  0.19538869  0.41416496  0.26287369    -0.24480
H2056       H  0.16197859  0.42405807  0.21697032     0.14500
H2057       H  0.10375163  0.38985847  0.30005882     0.14530
C2058       C  0.07052855  0.39966407  0.25332497    -0.24430
H2059       H  0.20471698  0.42114336  0.24184344     0.04740
H2060       H  0.20556715  0.39341026  0.26873015     0.07970
H2061       H  0.20099577  0.43078339  0.27910688     0.07970
H2062       H  0.06566206  0.38415934  0.23576931     0.07950
H2063       H  0.05997443  0.42050704  0.24861248     0.07950
H2064       H  0.06109815  0.39116820  0.27372830     0.04730
C2065       C  0.15792280  0.54145669  0.01346057    -0.21080
C2066       C  0.13088180  0.55135038  0.00395351    -0.07640
C2067       C  0.10578552  0.53782338  0.01467502     0.13230
C2068       C  0.10807320  0.51650015  0.03561974    -0.21130
C2069       C  0.13484097  0.50638699  0.04540053    -0.07650
C2070       C  0.16026504  0.51922181  0.03418426     0.13210
C2071       C  0.18970857  0.50934376  0.04320666    -0.24480
H2072       H  0.17728484  0.55090078  0.00433359     0.14500
H2073       H  0.08830397  0.50716323  0.04399226     0.14530
C2074       C  0.07631951  0.54435978  0.00319186    -0.24430
H2075       H  0.20706199  0.52084630  0.03127145     0.04740
H2076       H  0.19207817  0.48601229  0.03893145     0.07970
H2077       H  0.19270257  0.51378970  0.06650520     0.07970
H2078       H  0.07618204  0.54254513  0.97926853     0.07950
H2079       H  0.07050272  0.56604899  0.01023684     0.07950
H2080       H  0.05953063  0.52957074  0.01179745     0.04730
C2081       C  0.98694469  0.51830106  0.10859231    -0.21080
C2082       C  0.99204347  0.54241156  0.12615613    -0.07640
C2083       C  0.01642294  0.54307077  0.14473695     0.13230
C2084       C  0.03505630  0.51978281  0.14457026    -0.21130
C2085       C  0.02991094  0.49626784  0.12685140    -0.07650
C2086       C  0.00585417  0.49515873  0.10860523     0.13210
C2087       C  0.00025012  0.46970887  0.08925586    -0.24480
H2088       H  0.96816026  0.51747871  0.09473675     0.14500
H2089       H  0.05435835  0.52022558  0.15764057     0.14530
C2090       C  0.02369363  0.56785051  0.16457614    -0.24430
H2091       H  0.97989770  0.47215877  0.07690012     0.04740
H2092       H  0.99854395  0.44989979  0.10248541     0.07970
H2093       H  0.01819372  0.46725559  0.07350697     0.07970
H2094       H  0.00661900  0.57039388  0.18125817     0.07950
H2095       H  0.02621834  0.58799057  0.15200788     0.07950
H2096       H  0.04431686  0.56438157  0.17619318     0.04730
C2097       C  0.22883642  0.39048925  0.62829219    -0.21080
C2098       C  0.22434113  0.36084342  0.62451411    -0.07640
C2099       C  0.24805379  0.34314897  0.61685200     0.13230
C2100       C  0.27527735  0.35525034  0.61368088    -0.21130
C2101       C  0.27966205  0.38485731  0.61571204    -0.07650
C2102       C  0.25627952  0.40285826  0.62311910     0.13210
C2103       C  0.26037834  0.43477847  0.62575577    -0.24480
H2104       H  0.21073780  0.40402968  0.63405609     0.14500
H2105       H  0.29311922  0.34146363  0.60759380     0.14530
C2106       C  0.24520864  0.31128567  0.61154342    -0.24430
H2107       H  0.24009772  0.44564969  0.63234100     0.04740
H2108       H  0.26735159  0.44385599  0.60465548     0.07970
H2109       H  0.27707005  0.43941472  0.64227384     0.07970
H2110       H  0.23197259  0.30720633  0.59203073     0.07950
H2111       H  0.23526360  0.30103124  0.63060910     0.07950
H2112       H  0.26640181  0.30079281  0.60784690     0.04730
C2113       C  0.23310886  0.25616440  0.66917777    -0.21080
C2114       C  0.20632772  0.25053255  0.65661578    -0.07640
C2115       C  0.20000167  0.22234763  0.64705190     0.13230
C2116       C  0.22161594  0.20122327  0.64831969    -0.21130
C2117       C  0.24942690  0.20767183  0.65847451    -0.07650
C2118       C  0.25497354  0.23565874  0.66956549     0.13210
C2119       C  0.28417910  0.24533757  0.68019115    -0.24480
H2120       H  0.23772651  0.27758008  0.67710674     0.14500
H2121       H  0.21701058  0.17979833  0.64043847     0.14530
C2122       C  0.17057991  0.21417392  0.63596611    -0.24430
H2123       H  0.28425590  0.26816781  0.68713210     0.04740
H2124       H  0.30015294  0.24344616  0.66240085     0.07970
H2125       H  0.29080756  0.23234377  0.69915260     0.07970
H2126       H  0.16611798  0.22532035  0.61526188     0.07950
H2127       H  0.15388437  0.21991347  0.65224156     0.07950
H2128       H  0.16891517  0.19074244  0.63182119     0.04730
C2129       C  0.15117816  0.38712465  0.53551719    -0.21080
C2130       C  0.12654672  0.37031798  0.54029765    -0.07640
C2131       C  0.10632099  0.36690243  0.51774700     0.13230
C2132       C  0.11326972  0.37687649  0.48997245    -0.21130
C2133       C  0.13983906  0.39020073  0.48423743    -0.07650
C2134       C  0.15777065  0.39782679  0.50784737     0.13210
C2135       C  0.18466323  0.41565752  0.50406907    -0.24480
H2136       H  0.16621573  0.39035932  0.55312775     0.14500
H2137       H  0.09906918  0.37182139  0.47210007     0.14530
C2138       C  0.07882027  0.35015468  0.52192626    -0.24430
H2139       H  0.19541944  0.41996510  0.52505378     0.04740
H2140       H  0.17903914  0.43664703  0.49420245     0.07970
H2141       H  0.20036422  0.40438460  0.49014153     0.07970
H2142       H  0.06596699  0.35957831  0.53984027     0.07950
H2143       H  0.08403863  0.32749069  0.52677799     0.07950
H2144       H  0.06525506  0.35035599  0.50217740     0.04730
C2145       C  0.04869761  0.23561052  0.63057137    -0.21080
C2146       C  0.04391662  0.26106206  0.64616350    -0.07640
C2147       C  0.01795343  0.26395290  0.66233851     0.13230
C2148       C  0.99784413  0.24153142  0.66212856    -0.21130
C2149       C  0.00268681  0.21614093  0.64657406    -0.07650
C2150       C  0.02866524  0.21306753  0.63080895     0.13210
C2151       C  0.03603408  0.18594017  0.61490117    -0.24480
H2152       H  0.06849547  0.23308665  0.61831678     0.14500
H2153       H  0.97784104  0.24404741  0.67406179     0.14530
C2154       C  0.01080379  0.29026895  0.68002437    -0.24430
H2155       H  0.05817380  0.18658901  0.60567052     0.04740
H2156       H  0.02094131  0.18293331  0.59666755     0.07970
H2157       H  0.03480976  0.16746042  0.63003446     0.07970
H2158       H  0.02725142  0.29337618  0.69712870     0.07950
H2159       H  0.00981634  0.30946466  0.66586800     0.07950
H2160       H  0.98953382  0.28838476  0.69100187     0.04730
C2161       C  0.63205756  0.39832386  0.26765985    -0.21080
C2162       C  0.61404563  0.38055807  0.28475802    -0.07640
C2163       C  0.60153772  0.35615822  0.27149950     0.13230
C2164       C  0.60276219  0.35337349  0.24165884    -0.21130
C2165       C  0.62246733  0.36884983  0.22489935    -0.07650
C2166       C  0.63802192  0.39134868  0.23824271     0.13210
C2167       C  0.66053238  0.40771286  0.22156610    -0.24480
H2168       H  0.64232573  0.41675717  0.27754231     0.14500
H2169       H  0.58998390  0.33664841  0.23218814     0.14530
C2170       C  0.58874002  0.33085051  0.28742473    -0.24430
H2171       H  0.67072816  0.42460603  0.23506026     0.04740
H2172       H  0.65052463  0.41810325  0.20247582     0.07970
H2173       H  0.67765204  0.39276404  0.21410843     0.07970
H2174       H  0.56533903  0.32904199  0.28269706     0.07950
H2175       H  0.59247223  0.33139543  0.31088452     0.07950
H2176       H  0.59932230  0.31082596  0.27982782     0.04730
C2177       C  0.48508318  0.23556881  0.12919785    -0.21080
C2178       C  0.49411203  0.21019659  0.14273486    -0.07640
C2179       C  0.52336735  0.20739681  0.15058925     0.13230
C2180       C  0.54265411  0.23034838  0.14537805    -0.21130
C2181       C  0.53358541  0.25578324  0.13168698    -0.07650
C2182       C  0.50422350  0.25824296  0.12338308     0.13210
C2183       C  0.49153473  0.28476488  0.10961850    -0.24480
H2184       H  0.46267776  0.23782941  0.12302343     0.14500
H2185       H  0.56499370  0.22837158  0.15190073     0.14530
C2186       C  0.53401695  0.18068374  0.16526027    -0.24430
H2187       H  0.48382379  0.27947557  0.08755688     0.04740
H2188       H  0.50667453  0.30303910  0.10808006     0.07970
H2189       H  0.47285569  0.29221911  0.12269945     0.07970
H2190       H  0.52997541  0.16166958  0.15138151     0.07950
H2191       H  0.52250077  0.17813014  0.18610635     0.07950
H2192       H  0.55749009  0.18181360  0.16983505     0.04730
C2193       C  0.51085129  0.38504370  0.13935161    -0.21080
C2194       C  0.51820781  0.35752359  0.14979029    -0.07640
C2195       C  0.49612578  0.34021864  0.16193011     0.13230
C2196       C  0.46766355  0.34966000  0.16142629    -0.21130
C2197       C  0.46031132  0.37794140  0.15382747    -0.07650
C2198       C  0.48232823  0.39597392  0.14260582     0.13210
C2199       C  0.47584577  0.42647329  0.13428065    -0.24480
H2200       H  0.52770573  0.39863789  0.13053443     0.14500
H2201       H  0.45145540  0.33560001  0.17066595     0.14530
C2202       C  0.50229422  0.31287198  0.17842818    -0.24430
H2203       H  0.49515430  0.43738587  0.12515015     0.04740
H2204       H  0.46868504  0.43872931  0.15357113     0.07970
H2205       H  0.45854816  0.42681894  0.11774804     0.07970
H2206       H  0.48231215  0.30111019  0.18453207     0.07950
H2207       H  0.51560329  0.29829923  0.16540704     0.07950
H2208       H  0.51389443  0.31800600  0.19873133     0.04730
C2209       C  0.65648986  0.25108561  0.03937884    -0.21080
C2210       C  0.63018585  0.25636532  0.05353754    -0.07640
C2211       C  0.60535859  0.24145811  0.04397643     0.13230
C2212       C  0.60769147  0.22133239  0.02140969    -0.21130
C2213       C  0.63402810  0.21571570  0.00721534    -0.07650
C2214       C  0.65879572  0.23104469  0.01662473     0.13210
C2215       C  0.68819333  0.22645497  0.00409801    -0.24480
H2216       H  0.67561632  0.26257897  0.04631215     0.14500
H2217       H  0.58838062  0.21027396  0.01432168     0.14530
C2218       C  0.57591728  0.24774845  0.05619733    -0.24430
H2219       H  0.70328606  0.21963847  0.02138834     0.04740
H2220       H  0.69620025  0.24666180  0.99413730     0.07970
H2221       H  0.68784582  0.20969160  0.98761262     0.07970
H2222       H  0.57120018  0.27097547  0.05376846     0.07950
H2223       H  0.57499302  0.24138944  0.07930160     0.07950
H2224       H  0.55869914  0.23583895  0.04466494     0.04730
C2225       C  0.21776808  0.10116038  0.74534808    -0.21080
C2226       C  0.20653057  0.12653375  0.75699781    -0.07640
C2227       C  0.21846090  0.15315630  0.74788538     0.13230
C2228       C  0.24206177  0.15341342  0.72856481    -0.21130
C2229       C  0.25386797  0.12787327  0.71766627    -0.07650
C2230       C  0.24117453  0.10135407  0.72615285     0.13210
C2231       C  0.25236397  0.07250660  0.71709685    -0.24480
H2232       H  0.20872010  0.08066985  0.75197365     0.14500
H2233       H  0.25133696  0.17374216  0.72181325     0.14530
C2234       C  0.20702568  0.18136987  0.75877183    -0.24430
H2235       H  0.25760018  0.05953336  0.73654719     0.04740
H2236       H  0.27212621  0.07429519  0.70435772     0.07970
H2237       H  0.23578914  0.06096890  0.70428506     0.07970
H2238       H  0.20812521  0.18205451  0.78273496     0.07950
H2239       H  0.18443633  0.18403729  0.75152226     0.07950
H2240       H  0.21957987  0.19986652  0.75020015     0.04730
C2241       C  0.09900569  0.00769864  0.73260749    -0.21080
C2242       C  0.12056226  0.00951571  0.71120060    -0.07640
C2243       C  0.13881017  0.03397963  0.71127652     0.13230
C2244       C  0.13586252  0.05482117  0.73323550    -0.21130
C2245       C  0.11491707  0.05223929  0.75518767    -0.07650
C2246       C  0.09549251  0.02867405  0.75402435     0.13210
C2247       C  0.07069459  0.02507747  0.77499373    -0.24480
H2248       H  0.08472997  0.98927276  0.73300336     0.14500
H2249       H  0.15060909  0.07289445  0.73363692     0.14530
C2250       C  0.16172024  0.03822674  0.68875001    -0.24430
H2251       H  0.05642844  0.00686743  0.76897740     0.04740
H2252       H  0.05723602  0.04477649  0.77510489     0.07970
H2253       H  0.07890456  0.02048467  0.79702027     0.07970
H2254       H  0.15123951  0.03951132  0.66728211     0.07950
H2255       H  0.17721064  0.02011281  0.68945954     0.07950
H2256       H  0.17407747  0.05840766  0.69209332     0.04730
C2257       C  0.14047413  0.26807279  0.73980637    -0.21080
C2258       C  0.12186877  0.26281674  0.71651385    -0.07640
C2259       C  0.10830657  0.23586121  0.71441933     0.13230
C2260       C  0.11335619  0.21487904  0.73547713    -0.21130
C2261       C  0.13164529  0.21991062  0.75914709    -0.07650
C2262       C  0.14558661  0.24704680  0.76119012     0.13210
C2263       C  0.16557097  0.25433760  0.78573344    -0.24480
H2264       H  0.15122808  0.28871517  0.74113310     0.14500
H2265       H  0.10229928  0.19446445  0.73355436     0.14530
C2266       C  0.08726891  0.22958170  0.69079695    -0.24430
H2267       H  0.17433567  0.27646323  0.78372315     0.04740
H2268       H  0.18414658  0.23932751  0.78581159     0.07970
H2269       H  0.15376720  0.25298467  0.80662288     0.07970
H2270       H  0.09778197  0.23257674  0.66941724     0.07950
H2271       H  0.06882197  0.24440188  0.69342427     0.07950
H2272       H  0.07877169  0.20729145  0.69188616     0.04730
C2273       C  0.99639797  0.13342352  0.73454423    -0.21080
C2274       C  0.00452550  0.12239687  0.70759420    -0.07640
C2275       C  0.03080241  0.10761464  0.70463882     0.13230
C2276       C  0.04811455  0.10356375  0.72924054    -0.21130
C2277       C  0.03925717  0.11360050  0.75657936    -0.07650
C2278       C  0.01332388  0.12925481  0.75904500     0.13210
C2279       C  0.00371964  0.14260036  0.78706825    -0.24480
H2280       H  0.97610620  0.14481876  0.73654782     0.14500
H2281       H  0.06869097  0.09273076  0.72715582     0.14530
C2282       C  0.04031862  0.09613416  0.67577014    -0.24430
H2283       H  0.98225932  0.15299856  0.78517043     0.04740
H2284       H  0.01933094  0.15945125  0.79345853     0.07970
H2285       H  0.00204300  0.12585148  0.80399240     0.07970
H2286       H  0.04274429  0.11414743  0.66020244     0.07950
H2287       H  0.02396909  0.08094544  0.66743698     0.07950
H2288       H  0.06125481  0.08468194  0.67726421     0.04730
C2289       C  0.72671002  0.71588851  0.66034618    -0.21080
C2290       C  0.75619380  0.72242233  0.66033109    -0.07640
C2291       C  0.76569112  0.74966609  0.65050783     0.13230
C2292       C  0.74560188  0.76844514  0.63840196    -0.21130
C2293       C  0.71647669  0.76096038  0.63681718    -0.07650
C2294       C  0.70672896  0.73452751  0.64828591     0.13210
C2295       C  0.67559092  0.72510187  0.64700047    -0.24480
H2296       H  0.71958036  0.69493494  0.66783618     0.14500
H2297       H  0.75257037  0.78948437  0.63103473     0.14530
C2298       C  0.79641790  0.75992814  0.65205456    -0.24430
H2299       H  0.67258379  0.70293725  0.65539897     0.04740
H2300       H  0.66771478  0.72538849  0.62444792     0.07970
H2301       H  0.66207064  0.73926360  0.66039695     0.07970
H2302       H  0.79690767  0.78059344  0.66380622     0.07950
H2303       H  0.81077542  0.74548383  0.66409875     0.07950
H2304       H  0.80514387  0.76322460  0.62990281     0.04730
C2305       C  0.74855088  0.52057827  0.66475422    -0.21080
C2306       C  0.74608414  0.54410265  0.64589518    -0.07640
C2307       C  0.72106511  0.54654030  0.62861743     0.13230
C2308       C  0.69938781  0.52552959  0.63090907    -0.21130
C2309       C  0.70210491  0.50168855  0.64943417    -0.07650
C2310       C  0.72737013  0.49922065  0.66655505     0.13210
C2311       C  0.73314467  0.47397452  0.68627964    -0.24480
H2312       H  0.76779495  0.51833352  0.67778692     0.14500
H2313       H  0.68053093  0.52736788  0.61735575     0.14530
C2314       C  0.71680549  0.57099880  0.60772469    -0.24430
H2315       H  0.75365484  0.47644839  0.69836978     0.04740
H2316       H  0.73506293  0.45397240  0.67337097     0.07970
H2317       H  0.71563550  0.47178051  0.70252692     0.07970
H2318       H  0.73363799  0.57027571  0.59062569     0.07950
H2319       H  0.71793522  0.59172599  0.61944737     0.07950
H2320       H  0.69551408  0.56988964  0.59683272     0.04730
C2321       C  0.75174990  0.64372829  0.74622567    -0.21080
C2322       C  0.74668657  0.63338195  0.71816349    -0.07640
C2323       C  0.71898229  0.62122127  0.71231307     0.13230
C2324       C  0.69858572  0.61805674  0.73485620    -0.21130
C2325       C  0.70477623  0.62634023  0.76325624    -0.07650
C2326       C  0.73134739  0.64029412  0.76867301     0.13210
C2327       C  0.73798361  0.65233921  0.79800326    -0.24480
H2328       H  0.77199035  0.65438870  0.75079235     0.14500
H2329       H  0.67763208  0.60874288  0.73035154     0.14530
C2330       C  0.71009795  0.61188089  0.68243248    -0.24430
H2331       H  0.75910948  0.66356681  0.79854070     0.04740
H2332       H  0.73856307  0.63450885  0.81384726     0.07970
H2333       H  0.72131184  0.66825751  0.80411962     0.07970
H2334       H  0.72307615  0.59313904  0.67560858     0.07950
H2335       H  0.71292687  0.62989448  0.66690811     0.07950
H2336       H  0.68711548  0.60516812  0.68167240     0.04730
C2337       C  0.74829987  0.62324281  0.52870336    -0.21080
C2338       C  0.73989088  0.63195699  0.55642525    -0.07640
C2339       C  0.71304533  0.64642658  0.55982632     0.13230
C2340       C  0.69558575  0.65117493  0.53539780    -0.21130
C2341       C  0.70479612  0.64327926  0.50763106    -0.07650
C2342       C  0.73147816  0.62912527  0.50444747     0.13210
C2343       C  0.74200288  0.61894599  0.47567410    -0.24480
H2344       H  0.76869859  0.61228206  0.52573415     0.14500
H2345       H  0.67468181  0.66126844  0.53791300     0.14530
C2346       C  0.70238767  0.65699677  0.58877604    -0.24430
H2347       H  0.76381240  0.60929894  0.47703863     0.04740
H2348       H  0.74316510  0.63735896  0.46048154     0.07970
H2349       H  0.72718112  0.60208676  0.46774455     0.07970
H2350       H  0.71702100  0.67390860  0.59716958     0.07950
H2351       H  0.70113261  0.63889987  0.60434036     0.07950
H2352       H  0.68054697  0.66663486  0.58724063     0.04730
C2353       C  0.70071360  0.22946891  0.11960114    -0.21080
C2354       C  0.71034191  0.25801827  0.11725630    -0.07640
C2355       C  0.74012558  0.26392287  0.11968482     0.13230
C2356       C  0.75910590  0.24137816  0.12643550    -0.21130
C2357       C  0.74904770  0.21313163  0.13064762    -0.07650
C2358       C  0.71953488  0.20707784  0.12653147     0.13210
C2359       C  0.70743630  0.17738753  0.13077550    -0.24480
H2360       H  0.67785208  0.22491919  0.11767206     0.14500
H2361       H  0.78193563  0.24588987  0.12870156     0.14530
C2362       C  0.75184424  0.29393470  0.11651123    -0.24430
H2363       H  0.68362083  0.17684773  0.12834651     0.04740
H2364       H  0.71282248  0.16935176  0.15272027     0.07970
H2365       H  0.71671831  0.16304900  0.11422230     0.07970
H2366       H  0.74204819  0.30805858  0.13305894     0.07950
H2367       H  0.74676760  0.30234802  0.09465102     0.07950
H2368       H  0.77562336  0.29465444  0.11931584     0.04730
C2369       C  0.69399344  0.13086308  0.03145073    -0.21080
C2370       C  0.69937795  0.14592338  0.00579181    -0.07640
C2371       C  0.72584796  0.16116445  0.00226639     0.13230
C2372       C  0.74458666  0.16273051  0.02552341    -0.21130
C2373       C  0.73992207  0.14660170  0.05059400    -0.07650
C2374       C  0.71463165  0.12945315  0.05324366     0.13210
C2375       C  0.70952108  0.10810542  0.07745076    -0.24480
H2376       H  0.67437173  0.11834462  0.03363514     0.14500
H2377       H  0.76442888  0.17483369  0.02301514     0.14530
C2378       C  0.73658639  0.17374983  0.97388541    -0.24430
H2379       H  0.68848869  0.09685582  0.07527565     0.04740
H2380       H  0.70938698  0.11878692  0.09877804     0.07970
H2381       H  0.72646352  0.09129994  0.07696596     0.07970
H2382       H  0.72224100  0.19037248  0.96501675     0.07950
H2383       H  0.73864205  0.15651328  0.95776722     0.07950
H2384       H  0.75824374  0.18377135  0.97589741     0.04730
C2385       C  0.71506109  0.05229115  0.15003884    -0.21080
C2386       C  0.74310855  0.04344583  0.15717256    -0.07640
C2387       C  0.74934595  0.01372247  0.15878784     0.13230
C2388       C  0.72795666  0.99392862  0.15096716    -0.21130
C2389       C  0.70047161  0.00294204  0.14229896    -0.07650
C2390       C  0.69351827  0.03241609  0.14302623     0.13210
C2391       C  0.66392687  0.04317205  0.13519645    -0.24480
H2392       H  0.71030206  0.07505884  0.14886326     0.14500
H2393       H  0.73282455  0.97115406  0.15161393     0.14530
C2394       C  0.77824990  0.00175764  0.16749284    -0.24430
H2395       H  0.66269493  0.06697608  0.13598430     0.04740
H2396       H  0.64763114  0.03456381  0.15055754     0.07970
H2397       H  0.65855560  0.03634982  0.11293508     0.07970
H2398       H  0.79477050  0.01831433  0.17170051     0.07950
H2399       H  0.78653554  0.98753594  0.15012839     0.07950
H2400       H  0.77563764  0.98871983  0.18745221     0.04730
C2401       C  0.12348779  0.51335435  0.38440983    -0.21080
C2402       C  0.11844046  0.51922035  0.35519054    -0.07640
C2403       C  0.11229715  0.49645843  0.33606399     0.13230
C2404       C  0.11456331  0.46809188  0.34595437    -0.21130
C2405       C  0.12327182  0.46201878  0.37438795    -0.07650
C2406       C  0.12559661  0.48495884  0.39443740     0.13210
C2407       C  0.13234697  0.47997633  0.42592596    -0.24480
H2408       H  0.12690935  0.53108556  0.39919439     0.14500
H2409       H  0.11264557  0.45061780  0.33058562     0.14530
C2410       C  0.10574111  0.50194722  0.30468076    -0.24430
H2411       H  0.13172658  0.50028108  0.43849517     0.04740
H2412       H  0.15424362  0.47085698  0.42840036     0.07970
H2413       H  0.11617836  0.46509093  0.43546362     0.07970
H2414       H  0.12424367  0.51326966  0.29456533     0.07950
H2415       H  0.08604248  0.51530432  0.30271976     0.07950
H2416       H  0.10209702  0.48168099  0.29256649     0.04730
C2417       C  0.23386782  0.64949044  0.36047539    -0.21080
C2418       C  0.20997755  0.63428662  0.37207760    -0.07640
C2419       C  0.21551354  0.61450974  0.39476850     0.13230
C2420       C  0.24426110  0.60933389  0.40353803    -0.21130
C2421       C  0.26810791  0.62243052  0.38975009    -0.07650
C2422       C  0.26257499  0.64344063  0.36842606     0.13210
C2423       C  0.28676297  0.65945244  0.35360793    -0.24480
H2424       H  0.23037135  0.66519762  0.34356500     0.14500
H2425       H  0.24818885  0.59329174  0.42003497     0.14530
C2426       C  0.19162423  0.59783562  0.40925185    -0.24430
H2427       H  0.27852027  0.67647929  0.33898911     0.04740
H2428       H  0.29978232  0.64455158  0.34020611     0.07970
H2429       H  0.30072599  0.66984331  0.37002066     0.07970
H2430       H  0.18129762  0.58313818  0.39349562     0.07950
H2431       H  0.17537262  0.61288443  0.41825672     0.07950
H2432       H  0.19977873  0.58443074  0.42733657     0.04730
C2433       C  0.23109483  0.62963976  0.27115988    -0.21080
C2434       C  0.20399474  0.62040046  0.26150730    -0.07640
C2435       C  0.19765311  0.62269761  0.23157205     0.13230
C2436       C  0.21790695  0.63476914  0.21264658    -0.21130
C2437       C  0.24524270  0.64387301  0.22188265    -0.07650
C2438       C  0.25179196  0.64114260  0.25176468     0.13210
C2439       C  0.28043943  0.64984154  0.26347735    -0.24480
H2440       H  0.23563078  0.62903393  0.29414065     0.14500
H2441       H  0.21248789  0.63639352  0.18991368     0.14530
C2442       C  0.16966416  0.61190533  0.21889117    -0.24430
H2443       H  0.28200672  0.64616785  0.28714792     0.04740
H2444       H  0.28389787  0.67303577  0.25939212     0.07970
H2445       H  0.29717074  0.63667354  0.25287864     0.07970
H2446       H  0.15075389  0.62341620  0.22775104     0.07950
H2447       H  0.16765863  0.58868013  0.22324010     0.07950
H2448       H  0.16889633  0.61484325  0.19507946     0.04730
C2449       C  0.09039516  0.52562258  0.21498030    -0.21080
C2450       C  0.11737189  0.51276286  0.20898422    -0.07640
C2451       C  0.14168925  0.52285372  0.22450073     0.13230
C2452       C  0.13831095  0.54487141  0.24499201    -0.21130
C2453       C  0.11138332  0.55748204  0.25142033    -0.07650
C2454       C  0.08704291  0.54754715  0.23595886     0.13210
C2455       C  0.05735175  0.55908646  0.24201783    -0.24480
H2456       H  0.07141782  0.51760175  0.20413149     0.14500
H2457       H  0.15716056  0.55148263  0.25706989     0.14530
C2458       C  0.17141993  0.51024941  0.22054433    -0.24430
H2459       H  0.04078043  0.54879666  0.22817938     0.04740
H2460       H  0.05696986  0.58248186  0.23767441     0.07970
H2461       H  0.05132202  0.55488823  0.26488372     0.07970
H2462       H  0.17808234  0.51175447  0.19756366     0.07950
H2463       H  0.17154131  0.48748715  0.22769528     0.07950
H2464       H  0.18791390  0.52173927  0.23352241     0.04730
C2465       C  0.98498450  0.64645878  0.25278736    -0.21080
C2466       C  0.99615500  0.65163002  0.22499325    -0.07640
C2467       C  0.02606848  0.64885471  0.22008176     0.13230
C2468       C  0.04409109  0.64085106  0.24296753    -0.21130
C2469       C  0.03316495  0.63616928  0.27079137    -0.07650
C2470       C  0.00322851  0.63885137  0.27582821     0.13210
C2471       C  0.99051800  0.63295119  0.30520900    -0.24480
H2472       H  0.96187679  0.64763424  0.25627368     0.14500
H2473       H  0.06695856  0.63854231  0.23933311     0.14530
C2474       C  0.03909222  0.65525085  0.19093169    -0.24430
H2475       H  0.96663490  0.63480852  0.30518724     0.04740
H2476       H  0.99909410  0.64867663  0.32088655     0.07970
H2477       H  0.99627354  0.61088917  0.31227523     0.07970
H2478       H  0.03362553  0.67761041  0.18468271     0.07950
H2479       H  0.03063790  0.64013399  0.17449993     0.07950
H2480       H  0.06293706  0.65322485  0.19110014     0.04730
C2481       C  0.10148743  0.72998869  0.20563564    -0.21080
C2482       C  0.09442436  0.75826094  0.21302190    -0.07640
C2483       C  0.08519203  0.76431814  0.24164939     0.13230
C2484       C  0.08636586  0.74241306  0.26260920    -0.21130
C2485       C  0.09768646  0.71523207  0.25589791    -0.07650
C2486       C  0.10458474  0.70876389  0.22658828     0.13210
C2487       C  0.11772259  0.68064922  0.21683784    -0.24480
H2488       H  0.10743628  0.72498515  0.18350636     0.14500
H2489       H  0.08066248  0.74730577  0.28481504     0.14530
C2490       C  0.07545078  0.79383609  0.25077561    -0.24430
H2491       H  0.11827402  0.67864291  0.19290154     0.04740
H2492       H  0.10521308  0.66228316  0.22524087     0.07970
H2493       H  0.14037326  0.67915610  0.22437108     0.07970
H2494       H  0.05683341  0.80065939  0.23741133     0.07950
H2495       H  0.09336760  0.80944925  0.24829373     0.07950
H2496       H  0.06852906  0.79430160  0.27379873     0.04730
C2497       C  0.11219131  0.73814763  0.05477822    -0.21080
C2498       C  0.13150032  0.76125533  0.05322853    -0.07640
C2499       C  0.15340203  0.76127167  0.03163039     0.13230
C2500       C  0.15426590  0.73885496  0.01159465    -0.21130
C2501       C  0.13400140  0.71650786  0.01228672    -0.07650
C2502       C  0.11303261  0.71577075  0.03477723     0.13210
C2503       C  0.09088857  0.69212093  0.03804154    -0.24480
H2504       H  0.09575612  0.73779864  0.07148846     0.14500
H2505       H  0.17055206  0.73927780  0.99472201     0.14530
C2506       C  0.17599151  0.78456432  0.02897232    -0.24430
H2507       H  0.07688605  0.69533678  0.05726128     0.04740
H2508       H  0.10182205  0.67110649  0.04081588     0.07970
H2509       H  0.07647726  0.69164743  0.01893296     0.07970
H2510       H  0.18828550  0.78632817  0.04942998     0.07950
H2511       H  0.16569000  0.80538461  0.02360193     0.07950
H2512       H  0.19181367  0.77999447  0.01148039     0.04730
C2513       C  0.21802245  0.70414817  0.12257393    -0.21080
C2514       C  0.24660680  0.71310495  0.12626094    -0.07640
C2515       C  0.25377772  0.74232413  0.12147631     0.13230
C2516       C  0.23194309  0.76210144  0.11550361    -0.21130
C2517       C  0.20307280  0.75355961  0.11414351    -0.07650
C2518       C  0.19607490  0.72395237  0.11666849     0.13210
C2519       C  0.16573834  0.71283801  0.11288699    -0.24480
H2520       H  0.21274361  0.68157742  0.12498385     0.14500
H2521       H  0.23739391  0.78464056  0.11317302     0.14530
C2522       C  0.28439790  0.75282874  0.12123876    -0.24430
H2523       H  0.16499336  0.68899646  0.11293359     0.04740
H2524       H  0.15714055  0.72026040  0.09185610     0.07970
H2525       H  0.15157784  0.72019767  0.13075372     0.07970
H2526       H  0.29654641  0.74065355  0.10478212     0.07950
H2527       H  0.29429250  0.75022578  0.14288148     0.07950
H2528       H  0.28586871  0.77580359  0.11503445     0.04730
C2529       C  0.98460478  0.74591820  0.12759381    -0.21080
C2530       C  0.99582805  0.71790579  0.12523987    -0.07640
C2531       C  0.02617301  0.71462304  0.12325168     0.13230
C2532       C  0.04394537  0.73916405  0.12211262    -0.21130
C2533       C  0.03236048  0.76694900  0.12343982    -0.07650
C2534       C  0.00241665  0.77038096  0.12669925     0.13210
C2535       C  0.98937591  0.79983269  0.12974522    -0.24480
H2536       H  0.96171978  0.74871508  0.13073325     0.14500
H2537       H  0.06711423  0.73657806  0.12017505     0.14530
C2538       C  0.04063932  0.68589381  0.12168591    -0.24430
H2539       H  0.96573652  0.79867887  0.13330752     0.04740
H2540       H  0.99356507  0.81259245  0.10986633     0.07970
H2541       H  0.99902969  0.81104657  0.14856304     0.07970
H2542       H  0.02542362  0.66826083  0.12593699     0.07950
H2543       H  0.05794835  0.68463220  0.13815711     0.07950
H2544       H  0.05040584  0.68289258  0.09998796     0.04730
C2545       C  0.63250040  0.24256901  0.36482700    -0.21080
C2546       C  0.61509090  0.22109930  0.37716826    -0.07640
C2547       C  0.59479927  0.22905051  0.39853745     0.13230
C2548       C  0.59140170  0.25837351  0.40575827    -0.21130
C2549       C  0.60706714  0.28026977  0.39142622    -0.07650
C2550       C  0.62845603  0.27182700  0.37093196     0.13210
C2551       C  0.64629756  0.29311153  0.35382955    -0.24480
H2552       H  0.64796886  0.23659437  0.34826021     0.14500
H2553       H  0.57517015  0.26425408  0.42156760     0.14530
C2554       C  0.57669678  0.20674228  0.41367603    -0.24430
H2555       H  0.66259588  0.28235812  0.33991735     0.04740
H2556       H  0.65809114  0.30757989  0.36873972     0.07970
H2557       H  0.63224511  0.30571997  0.33917136     0.07970
H2558       H  0.59092474  0.19054545  0.42397146     0.07950
H2559       H  0.56226502  0.19594809  0.39800245     0.07950
H2560       H  0.56296245  0.21640867  0.43079957     0.04730
C2561       C  0.48904257  0.13040163  0.39303602    -0.21080
C2562       C  0.46662293  0.12863371  0.37266681    -0.07640
C2563       C  0.47090987  0.11126118  0.34783494     0.13230
C2564       C  0.49840553  0.10011033  0.34200111    -0.21130
C2565       C  0.52186974  0.10629507  0.35996543    -0.07650
C2566       C  0.51665526  0.11969726  0.38695405     0.13210
C2567       C  0.54011715  0.12375647  0.40913179    -0.24480
H2568       H  0.48584058  0.14243763  0.41282760     0.14500
H2569       H  0.50209893  0.08898537  0.32174576     0.14530
C2570       C  0.44713143  0.10484549  0.32684545    -0.24430
H2571       H  0.53124570  0.13141204  0.43009114     0.04740
H2572       H  0.55597579  0.14006126  0.40181537     0.07970
H2573       H  0.55114997  0.10299991  0.41313214     0.07970
H2574       H  0.44112735  0.12449538  0.31473974     0.07950
H2575       H  0.42834275  0.09606806  0.33889561     0.07950
H2576       H  0.45377015  0.08858970  0.31058677     0.04730
C2577       C  0.59233035  0.24248230  0.22629524    -0.21080
C2578       C  0.61282736  0.26420022  0.22355512    -0.07640
C2579       C  0.63592411  0.26584338  0.24324390     0.13230
C2580       C  0.63859012  0.24485367  0.26463356    -0.21130
C2581       C  0.61907488  0.22182022  0.26665982    -0.07650
C2582       C  0.59503517  0.22125126  0.24761821     0.13210
C2583       C  0.57247633  0.19824083  0.24869765    -0.24480
H2584       H  0.57479509  0.24148061  0.21086073     0.14500
H2585       H  0.65657007  0.24621897  0.27948200     0.14530
C2586       C  0.65824223  0.28930456  0.24151411    -0.24430
H2587       H  0.55579651  0.20100079  0.23173011     0.04740
H2588       H  0.56133754  0.19917942  0.26991918     0.07970
H2589       H  0.58276329  0.17705602  0.24517708     0.07970
H2590       H  0.64771485  0.31036196  0.24498316     0.07950
H2591       H  0.66915076  0.28881721  0.22012130     0.07950
H2592       H  0.67509631  0.28690106  0.25834832     0.04730
C2593       C  0.72522904  0.11373789  0.21267755    -0.21080
C2594       C  0.74137232  0.13942005  0.21107281    -0.07640
C2595       C  0.73317427  0.16258143  0.22914598     0.13230
C2596       C  0.71049788  0.15882042  0.24926692    -0.21130
C2597       C  0.69577283  0.13251665  0.25198592    -0.07650
C2598       C  0.70266076  0.11006610  0.23279526     0.13210
C2599       C  0.68602502  0.08235149  0.23333470    -0.24480
H2600       H  0.73078940  0.09597819  0.19866425     0.14500
H2601       H  0.70492043  0.17623899  0.26377225     0.14530
C2602       C  0.74789682  0.19137501  0.22719512    -0.24430
H2603       H  0.69389868  0.06696503  0.21675538     0.04740
H2604       H  0.66285195  0.08663407  0.22924173     0.07970
H2605       H  0.68832078  0.07226460  0.25477399     0.07970
H2606       H  0.74668434  0.19960021  0.20467360     0.07950
H2607       H  0.77078102  0.18944773  0.23380635     0.07950
H2608       H  0.73755699  0.20743313  0.24161582     0.04730
C2609       C  0.50956031  0.15828444  0.26939730    -0.21080
C2610       C  0.53524084  0.14283625  0.26536588    -0.07640
C2611       C  0.53881509  0.12726262  0.23909702     0.13230
C2612       C  0.51677839  0.12758645  0.21817751    -0.21130
C2613       C  0.49095746  0.14281717  0.22233755    -0.07650
C2614       C  0.48746154  0.15847048  0.24859729     0.13210
C2615       C  0.46052893  0.17534740  0.25550698    -0.24480
H2616       H  0.50646631  0.17009839  0.28934613     0.14500
H2617       H  0.51974733  0.11557898  0.19833980     0.14530
C2618       C  0.56557634  0.11002259  0.23253922    -0.24430
H2619       H  0.46199111  0.18642288  0.27672213     0.04740
H2620       H  0.44163118  0.16070521  0.25667478     0.07970
H2621       H  0.45705452  0.19211203  0.23879297     0.07970
H2622       H  0.56783429  0.09235030  0.24848193     0.07950
H2623       H  0.58488696  0.12412748  0.23305034     0.07950
H2624       H  0.56474157  0.10000952  0.21075908     0.04730
C2625       C  0.66002559  0.00034155  0.24849195    -0.21080
C2626       C  0.63560854  0.99429768  0.23182626    -0.07640
C2627       C  0.60855790  0.00586670  0.24016987     0.13230
C2628       C  0.60778408  0.02711575  0.26126040    -0.21130
C2629       C  0.63270031  0.03530906  0.27615990    -0.07650
C2630       C  0.65853063  0.01946168  0.27182563     0.13210
C2631       C  0.68407880  0.02127815  0.29196194    -0.24480
H2632       H  0.68030117  0.98995346  0.24338769     0.14500
H2633       H  0.58735240  0.03730173  0.26620666     0.14530
C2634       C  0.58013842  0.99531369  0.22819512    -0.24430
H2635       H  0.70144291  0.00612733  0.28558017     0.04740
H2636       H  0.67711760  0.01541118  0.31421021     0.07970
H2637       H  0.69366119  0.04304365  0.29220570     0.07970
H2638       H  0.57867282  0.97163873  0.23069061     0.07950
H2639       H  0.57778111  0.00118295  0.20516696     0.07950
H2640       H  0.56143598  0.00481812  0.23979188     0.04730
C2641       C  0.10025925  0.23796334  0.39729632    -0.21080
C2642       C  0.12078171  0.22007166  0.38384938    -0.07640
C2643       C  0.14076777  0.23245553  0.36457600     0.13230
C2644       C  0.14205478  0.26245653  0.36181791    -0.21130
C2645       C  0.12508607  0.28031514  0.37947856    -0.07650
C2646       C  0.10312718  0.26802938  0.39652790     0.13210
C2647       C  0.08398056  0.28649090  0.41512334    -0.24480
H2648       H  0.08421627  0.22855088  0.41145998     0.14500
H2649       H  0.15863762  0.27193729  0.34826931     0.14530
C2650       C  0.16215508  0.21404454  0.34876727    -0.24430
H2651       H  0.06787658  0.27344989  0.42721454     0.04740
H2652       H  0.07222697  0.30204450  0.40131475     0.07970
H2653       H  0.09718266  0.29843627  0.43109836     0.07970
H2654       H  0.15049420  0.19851468  0.33483984     0.07950
H2655       H  0.17541588  0.20209425  0.36460511     0.07950
H2656       H  0.17683635  0.22701053  0.33490079     0.04730
C2657       C  0.24097618  0.12672527  0.40316011    -0.21080
C2658       C  0.21813326  0.13592153  0.38560994    -0.07640
C2659       C  0.22489559  0.14578365  0.35748361     0.13230
C2660       C  0.25415127  0.15059981  0.34980115    -0.21130
C2661       C  0.27660137  0.14706668  0.37015390    -0.07650
C2662       C  0.26989644  0.13219957  0.39614338     0.13210
C2663       C  0.29244274  0.12366475  0.41799904    -0.24480
H2664       H  0.23631626  0.11747593  0.42401141     0.14500
H2665       H  0.25895345  0.16036842  0.32904752     0.14530
C2666       C  0.20195295  0.15267426  0.33575580    -0.24430
H2667       H  0.28335416  0.10966862  0.43525078     0.04740
H2668       H  0.30120638  0.14296526  0.42891975     0.07970
H2669       H  0.30997362  0.11147255  0.40718205     0.07970
H2670       H  0.17992843  0.14908622  0.34449321     0.07950
H2671       H  0.20477491  0.13875280  0.31648442     0.07950
H2672       H  0.20408805  0.17539349  0.32884666     0.04730
C2673       C  0.13525969  0.23872768  0.50602962    -0.21080
C2674       C  0.11030860  0.22680892  0.49407453    -0.07640
C2675       C  0.08292400  0.23530266  0.50427035     0.13230
C2676       C  0.08142850  0.25382173  0.52813750    -0.21130
C2677       C  0.10665907  0.26334844  0.54190598    -0.07650
C2678       C  0.13395422  0.25664019  0.52995757     0.13210
C2679       C  0.16197861  0.26820199  0.54183850    -0.24480
H2680       H  0.15618346  0.23277879  0.49734536     0.14500
H2681       H  0.06056485  0.25983494  0.53684391     0.14530
C2682       C  0.05550799  0.22393380  0.49119701    -0.24430
H2683       H  0.18080349  0.26163437  0.52848722     0.04740
H2684       H  0.16580632  0.25989640  0.56397549     0.07970
H2685       H  0.16149250  0.29196483  0.54188983     0.07970
H2686       H  0.05456026  0.20030279  0.49370617     0.07950
H2687       H  0.05464035  0.22964036  0.46790202     0.07950
H2688       H  0.03610663  0.23306648  0.50189417     0.04730
C2689       C  0.22805335  0.10740007  0.51262231    -0.21080
C2690       C  0.22397015  0.13042653  0.49383690    -0.07640
C2691       C  0.24046849  0.15572703  0.49701104     0.13230
C2692       C  0.25880999  0.15846476  0.52081615    -0.21130
C2693       C  0.26181103  0.13609509  0.54082161    -0.07650
C2694       C  0.24699689  0.10971302  0.53602834     0.13210
C2695       C  0.24939418  0.08442426  0.55624395    -0.24480
H2696       H  0.21506764  0.08819446  0.50996205     0.14500
H2697       H  0.27037934  0.17836100  0.52416978     0.14530
C2698       C  0.23848615  0.17992042  0.47539087    -0.24430
H2699       H  0.23456507  0.06667476  0.55019093     0.04740
H2700       H  0.24373923  0.09118562  0.57842726     0.07970
H2701       H  0.27163633  0.07572431  0.55578018     0.07970
H2702       H  0.21632865  0.18882351  0.47496449     0.07950
H2703       H  0.24421282  0.17180555  0.45353711     0.07950
H2704       H  0.25348897  0.19774572  0.48071099     0.04730
C2705       C  0.05214491  0.12500342  0.53337717    -0.21080
C2706       C  0.04430368  0.13384631  0.50548996    -0.07640
C2707       C  0.01665724  0.14579244  0.50120257     0.13230
C2708       C  0.99778683  0.14864783  0.52461595    -0.21130
C2709       C  0.00521822  0.13989478  0.55269570    -0.07650
C2710       C  0.03318652  0.12800958  0.55717601     0.13210
C2711       C  0.04488633  0.11953452  0.58635264    -0.24480
H2712       H  0.07353363  0.11631947  0.53677335     0.14500
H2713       H  0.97656958  0.15746897  0.52053492     0.14530
C2714       C  0.00580817  0.15542503  0.47215309    -0.24430
H2715       H  0.06448179  0.13245178  0.59096082     0.04740
H2716       H  0.05123029  0.09658937  0.58616818     0.07970
H2717       H  0.02976765  0.12291265  0.60444111     0.07970
H2718       H  0.98599833  0.14324272  0.46657199     0.07950
H2719       H  0.02157931  0.15177784  0.45481515     0.07950
H2720       H  0.00069474  0.17870457  0.47280516     0.04730
C2721       C  0.13659659  0.02004157  0.49395722    -0.21080
C2722       C  0.13740978  0.04895105  0.50241166    -0.07640
C2723       C  0.14301364  0.05576658  0.53163182     0.13230
C2724       C  0.14636099  0.03342623  0.55190516    -0.21130
C2725       C  0.14529865  0.00441689  0.54351734    -0.07650
C2726       C  0.14078785  0.99774027  0.51403164     0.13210
C2727       C  0.13917681  0.96715485  0.50377890    -0.24480
H2728       H  0.13276585  0.01489542  0.47142116     0.14500
H2729       H  0.14947952  0.03860635  0.57453655     0.14530
C2730       C  0.14441254  0.08650524  0.54164591    -0.24430
H2731       H  0.13507761  0.96575231  0.48015980     0.04740
H2732       H  0.12135830  0.95585859  0.51514467     0.07970
H2733       H  0.15994370  0.95624709  0.50821251     0.07970
H2734       H  0.12387605  0.09755596  0.53649928     0.07950
H2735       H  0.16248602  0.09778870  0.53067269     0.07950
H2736       H  0.14795997  0.08800381  0.56534096     0.04730
C2737       C  0.87179152  0.76959085  0.59533479    -0.21080
C2738       C  0.87649289  0.78692599  0.61976204    -0.07640
C2739       C  0.87652286  0.77370882  0.64739413     0.13230
C2740       C  0.86953649  0.74427298  0.64983972    -0.21130
C2741       C  0.86153482  0.72800695  0.62553028    -0.07650
C2742       C  0.86400437  0.74061273  0.59787263     0.13210
C2743       C  0.85732895  0.72389863  0.57092576    -0.24480
H2744       H  0.87216936  0.77916849  0.57402488     0.14500
H2745       H  0.86787795  0.73459899  0.67111083     0.14530
C2746       C  0.88349515  0.79039023  0.67437310    -0.24430
H2747       H  0.86192731  0.73645174  0.55098174     0.04740
H2748       H  0.83416550  0.71847092  0.57093905     0.07970
H2749       H  0.87041351  0.70396965  0.57025992     0.07970
H2750       H  0.86672734  0.80683800  0.67848994     0.07950
H2751       H  0.90486772  0.80093214  0.67194453     0.07950
H2752       H  0.88432852  0.77623572  0.69369678     0.04730
C2753       C  0.76784790  0.88220563  0.61241190    -0.21080
C2754       C  0.78965397  0.86848218  0.62781912    -0.07640
C2755       C  0.78263202  0.85288793  0.65297049     0.13230
C2756       C  0.75352994  0.84888151  0.66042113    -0.21130
C2757       C  0.73123594  0.86009957  0.64316185    -0.07650
C2758       C  0.73867757  0.87787614  0.61938265     0.13210
C2759       C  0.71624981  0.89198339  0.60089119    -0.24480
H2760       H  0.77371517  0.89584297  0.59447704     0.14500
H2761       H  0.74826548  0.83558209  0.67895331     0.14530
C2762       C  0.80589426  0.84019542  0.67163356    -0.24430
H2763       H  0.72600736  0.90724599  0.58517179     0.04740
H2764       H  0.70091481  0.90417287  0.61467474     0.07970
H2765       H  0.70464465  0.87537152  0.58829026     0.07970
H2766       H  0.81998987  0.85758760  0.67996551     0.07950
H2767       H  0.81913752  0.82512317  0.65867355     0.07950
H2768       H  0.79679179  0.82836085  0.69043645     0.04730
C2769       C  0.97319360  0.91405505  0.62236826    -0.21080
C2770       C  0.96487595  0.88768607  0.63383344    -0.07640
C2771       C  0.98617211  0.86862255  0.64404567     0.13230
C2772       C  0.01560286  0.87663542  0.64194854    -0.21130
C2773       C  0.02396037  0.90338698  0.63012268    -0.07650
C2774       C  0.00186005  0.92244285  0.62071984     0.13210
C2775       C  0.00711695  0.95274834  0.61061757    -0.24480
H2776       H  0.95674480  0.92887282  0.61502516     0.14500
H2777       H  0.03203814  0.86209331  0.64976410     0.14530
C2778       C  0.97797606  0.83991965  0.65653539    -0.24430
H2779       H  0.98702380  0.96423794  0.60460298     0.04740
H2780       H  0.02141887  0.95350697  0.59140635     0.07970
H2781       H  0.01638356  0.96440094  0.62885237     0.07970
H2782       H  0.96587444  0.82727605  0.64022707     0.07950
H2783       H  0.96423866  0.84301746  0.67598900     0.07950
H2784       H  0.99727058  0.82740234  0.66300902     0.04730
C2785       C  0.85858096  0.99052609  0.62587640    -0.21080
C2786       C  0.87883241  0.97319300  0.64029689    -0.07640
C2787       C  0.90151593  0.98632381  0.65556258     0.13230
C2788       C  0.90531039  0.01605655  0.65330091    -0.21130
C2789       C  0.88714480  0.03289855  0.63595758    -0.07650
C2790       C  0.86241324  0.02041948  0.62372670     0.13210
C2791       C  0.84086690  0.03824642  0.60763588    -0.24480
H2792       H  0.84127864  0.98032740  0.61395449     0.14500
H2793       H  0.92364677  0.02600076  0.66379796     0.14530
C2794       C  0.92327709  0.96874510  0.67200211    -0.24430
H2795       H  0.82245509  0.02511779  0.59983939     0.04740
H2796       H  0.85149001  0.04807318  0.58870213     0.07970
H2797       H  0.83232759  0.05536029  0.62198738     0.07970
H2798       H  0.93463781  0.95386765  0.65713085     0.07950
H2799       H  0.91211332  0.95610769  0.68906472     0.07950
H2800       H  0.93977846  0.98249166  0.68254164     0.04730
C2801       C  0.88933302  0.11086150  0.27000462    -0.21080
C2802       C  0.87626209  0.12801741  0.29156318    -0.07640
C2803       C  0.85391319  0.14711189  0.28330609     0.13230
C2804       C  0.84365852  0.14636632  0.25474840    -0.21130
C2805       C  0.85499511  0.12714934  0.23437992    -0.07650
C2806       C  0.87871486  0.10996848  0.24165968     0.13210
C2807       C  0.89212270  0.09004984  0.21978830    -0.24480
H2808       H  0.90683218  0.09658833  0.27577860     0.14500
H2809       H  0.82597795  0.16022373  0.24846060     0.14530
C2810       C  0.83992209  0.16760246  0.30428666    -0.24430
H2811       H  0.91049710  0.07789634  0.22905233     0.04740
H2812       H  0.90020997  0.10262691  0.20101849     0.07970
H2813       H  0.87577291  0.07435085  0.21220247     0.07970
H2814       H  0.85660072  0.18151867  0.31425543     0.07950
H2815       H  0.82811499  0.15560058  0.32129136     0.07950
H2816       H  0.82403775  0.18178205  0.29343251     0.04730
C2817       C  0.77631888  0.14557767  0.37109913    -0.21080
C2818       C  0.78637908  0.12073946  0.35677535    -0.07640
C2819       C  0.76739007  0.10565681  0.33827809     0.13230
C2820       C  0.73914727  0.11519854  0.33545550    -0.21130
C2821       C  0.72918944  0.14001345  0.34921686    -0.07650
C2822       C  0.74784649  0.15543220  0.36739708     0.13210
C2823       C  0.73746867  0.18162518  0.38329915    -0.24480
H2824       H  0.79075131  0.15736038  0.38515495     0.14500
H2825       H  0.72450715  0.10219526  0.32312917     0.14530
C2826       C  0.77571813  0.07868088  0.32221848    -0.24430
H2827       H  0.75477559  0.19118523  0.39677473     0.04740
H2828       H  0.71915971  0.17576397  0.39769446     0.07970
H2829       H  0.73017982  0.19805064  0.36752996     0.07970
H2830       H  0.78225711  0.06201465  0.33786101     0.07950
H2831       H  0.79326915  0.08318981  0.30649149     0.07950
H2832       H  0.75749206  0.06964345  0.30960420     0.04730
C2833       C  0.98420300  0.10385983  0.39725559    -0.21080
C2834       C  0.96685289  0.12353984  0.38265729    -0.07640
C2835       C  0.97926180  0.15003279  0.37437800     0.13230
C2836       C  0.00848131  0.15593047  0.38170706    -0.21130
C2837       C  0.02546539  0.13578230  0.39704186    -0.07650
C2838       C  0.01250378  0.10943768  0.40504695     0.13210
C2839       C  0.02607912  0.08691935  0.42397179    -0.24480
H2840       H  0.97561215  0.08387736  0.40361325     0.14500
H2841       H  0.01795124  0.17637996  0.37575710     0.14530
C2842       C  0.96214626  0.17148847  0.35730592    -0.24430
H2843       H  0.02425720  0.06551516  0.41366736     0.04740
H2844       H  0.01470179  0.08619134  0.44515179     0.07970
H2845       H  0.04887273  0.09054913  0.42790235     0.07970
H2846       H  0.94322338  0.17868917  0.37009815     0.07950
H2847       H  0.95458433  0.16145626  0.33689464     0.07950
H2848       H  0.97529579  0.19066045  0.35167260     0.04730
C2849       C  0.91046359  0.14472133  0.51552078    -0.21080
C2850       C  0.90093078  0.12300505  0.53435390    -0.07640
C2851       C  0.88490341  0.09974656  0.52331162     0.13230
C2852       C  0.87956799  0.09815935  0.49354632    -0.21130
C2853       C  0.89115242  0.11860120  0.47455323    -0.07650
C2854       C  0.90636122  0.14239893  0.48555448     0.13210
C2855       C  0.91906867  0.16468571  0.46558574    -0.24480
H2856       H  0.92295946  0.16246276  0.52404736     0.14500
H2857       H  0.86785106  0.07995545  0.48489383     0.14530
C2858       C  0.87365245  0.07656709  0.54289364    -0.24430
H2859       H  0.93050948  0.18180661  0.47772369     0.04740
H2860       H  0.90162070  0.17480753  0.45276551     0.07970
H2861       H  0.93475900  0.15449157  0.45060698     0.07970
H2862       H  0.85944290  0.08655577  0.55939630     0.07950
H2863       H  0.89180849  0.06538804  0.55365765     0.07950
H2864       H  0.86095095  0.06024231  0.53089157     0.04730
C2865       C  0.90446439  0.99057736  0.51534322    -0.21080
C2866       C  0.88152485  0.97163287  0.52132189    -0.07640
C2867       C  0.85511633  0.97592585  0.50650013     0.13230
C2868       C  0.85461866  0.99399066  0.48215425    -0.21130
C2869       C  0.87893104  0.00991967  0.47391514    -0.07650
C2870       C  0.90315804  0.01028046  0.49238073     0.13210
C2871       C  0.92830129  0.03015703  0.48737186    -0.24480
H2872       H  0.92414581  0.98912334  0.52782037     0.14500
H2873       H  0.83536634  0.99509243  0.46895597     0.14530
C2874       C  0.82740680  0.96191674  0.51586770    -0.24430
H2875       H  0.94486542  0.02801922  0.50452636     0.04740
H2876       H  0.92083854  0.05275826  0.48729854     0.07970
H2877       H  0.93878353  0.02515547  0.46658154     0.07970
H2878       H  0.82322626  0.96654742  0.53905513     0.07950
H2879       H  0.82871040  0.93867062  0.51239339     0.07950
H2880       H  0.80869270  0.96985060  0.50325240     0.04730
C2881       C  0.12210794  0.88509568  0.23937862    -0.21080
C2882       C  0.13572814  0.85908046  0.23163104    -0.07640
C2883       C  0.14722851  0.84180031  0.25455180     0.13230
C2884       C  0.14105781  0.84874079  0.28342451    -0.21130
C2885       C  0.12535987  0.87313184  0.29080300    -0.07650
C2886       C  0.11782786  0.89275750  0.26878377     0.13210
C2887       C  0.10567255  0.92174895  0.27643515    -0.24480
H2888       H  0.11427193  0.89919089  0.22250482     0.14500
H2889       H  0.14734460  0.83411061  0.30054567     0.14530
C2890       C  0.16483302  0.81492348  0.24963618    -0.24430
H2891       H  0.09931481  0.93396959  0.25683446     0.04740
H2892       H  0.12231990  0.93431060  0.28811497     0.07970
H2893       H  0.08664767  0.91968295  0.29085066     0.07970
H2894       H  0.18352223  0.81979719  0.23536205     0.07950
H2895       H  0.15122330  0.79770943  0.24021114     0.07950
H2896       H  0.17368994  0.80618734  0.27012589     0.04730
C2897       C  0.14120440  0.78221964  0.37335004    -0.21080
C2898       C  0.11169318  0.78965274  0.37533630    -0.07640
C2899       C  0.09103533  0.76710127  0.37293881     0.13230
C2900       C  0.10007840  0.73905043  0.36779066    -0.21130
C2901       C  0.12901786  0.73226916  0.36352605    -0.07650
C2902       C  0.15006318  0.75381291  0.36718986     0.13210
C2903       C  0.18163193  0.74672920  0.36508406    -0.24480
H2904       H  0.15743283  0.79880998  0.37563154     0.14500
H2905       H  0.08395314  0.72241864  0.36467660     0.14530
C2906       C  0.05915005  0.77184989  0.37275587    -0.24430
H2907       H  0.19531544  0.76582098  0.36946189     0.04740
H2908       H  0.18686632  0.73877362  0.34309242     0.07970
H2909       H  0.18703560  0.72987534  0.38119640     0.07970
H2910       H  0.05398064  0.78322158  0.35250245     0.07950
H2911       H  0.05234651  0.78356171  0.39243714     0.07950
H2912       H  0.04661002  0.75150758  0.37235351     0.04730
C2913       C  0.09836350  0.99848398  0.38830867    -0.21080
C2914       C  0.11832018  0.97644354  0.39288493    -0.07640
C2915       C  0.14757783  0.98388101  0.39771196     0.13230
C2916       C  0.15525422  0.01298701  0.40056449    -0.21130
C2917       C  0.13465179  0.03501078  0.39847789    -0.07650
C2918       C  0.10595595  0.02746228  0.39096102     0.13210
C2919       C  0.08245617  0.04933005  0.38736998    -0.24480
H2920       H  0.07621561  0.99296541  0.38359167     0.14500
H2921       H  0.17737990  0.01845230  0.40565331     0.14530
C2922       C  0.17071041  0.96151079  0.40120615    -0.24430
H2923       H  0.06154828  0.03940416  0.38132254     0.04740
H2924       H  0.08833031  0.06493322  0.37017551     0.07970
H2925       H  0.07929574  0.06033527  0.40825253     0.07970
H2926       H  0.17267449  0.94869309  0.38106998     0.07950
H2927       H  0.16527884  0.94727982  0.41963072     0.07950
H2928       H  0.19212409  0.97126903  0.40557854     0.04730
C2929       C  0.00921087  0.99175363  0.38534598    -0.21080
C2930       C  0.00675631  0.96864836  0.40466760    -0.07640
C2931       C  0.98290161  0.96724219  0.42391310     0.13230
C2932       C  0.96164399  0.98810405  0.42248764    -0.21130
C2933       C  0.96387288  0.01093631  0.40325011    -0.07650
C2934       C  0.98782266  0.01309084  0.38434501     0.13210
C2935       C  0.99070414  0.03654311  0.36210483    -0.24480
H2936       H  0.02685238  0.99231974  0.36994556     0.14500
H2937       H  0.94288187  0.98642369  0.43645384     0.14530
C2938       C  0.97978429  0.94426021  0.44670625    -0.24430
H2939       H  0.01045982  0.04931589  0.36627002     0.04740
H2940       H  0.97195802  0.05119586  0.36200254     0.07970
H2941       H  0.99248359  0.02688261  0.34024791     0.07970
H2942       H  0.99899240  0.94489138  0.46079612     0.07950
H2943       H  0.97721240  0.92275650  0.43680303     0.07950
H2944       H  0.96061961  0.94774277  0.46076086     0.04730
C2945       C  0.14395986  0.89736308  0.52067839    -0.21080
C2946       C  0.11854842  0.89602689  0.53745397    -0.07640
C2947       C  0.09350877  0.88444581  0.52479765     0.13230
C2948       C  0.09354538  0.87783271  0.49501485    -0.21130
C2949       C  0.11764980  0.88352295  0.47724212    -0.07650
C2950       C  0.14360361  0.89192788  0.49062626     0.13210
C2951       C  0.17035142  0.89709386  0.47290589    -0.24480
H2952       H  0.16350780  0.90557319  0.53046006     0.14500
H2953       H  0.07397923  0.87002157  0.48519143     0.14530
C2954       C  0.06679851  0.87928768  0.54269019    -0.24430
H2955       H  0.18885750  0.90365156  0.48658830     0.04740
H2956       H  0.16633748  0.91441212  0.45701182     0.07970
H2957       H  0.17630573  0.87713081  0.46124232     0.07970
H2958       H  0.05789697  0.89996743  0.55056568     0.07950
H2959       H  0.07216522  0.86550968  0.56151730     0.07950
H2960       H  0.04985460  0.86811389  0.53007140     0.04730
C2961       C  0.01230531  0.90410410  0.50109319    -0.21080
C2962       C  0.01134208  0.88522430  0.47760245    -0.07640
C2963       C  0.98808268  0.86538255  0.47546346     0.13230
C2964       C  0.96602834  0.86606437  0.49630869    -0.21130
C2965       C  0.96659829  0.88593087  0.51894902    -0.07650
C2966       C  0.99000870  0.90512805  0.52133312     0.13210
C2967       C  0.99081490  0.92798565  0.54410109    -0.24480
H2968       H  0.02990427  0.91935882  0.50278728     0.14500
H2969       H  0.94767118  0.85176517  0.49435340     0.14530
C2970       C  0.98521163  0.84448838  0.45072257    -0.24430
H2971       H  0.01013160  0.94196970  0.54199548     0.04740
H2972       H  0.99155153  0.91732109  0.56533867     0.07970
H2973       H  0.97139863  0.94179827  0.54262062     0.07970
H2974       H  0.00410040  0.82989116  0.45024711     0.07950
H2975       H  0.98355462  0.85631989  0.42993729     0.07950
H2976       H  0.96558924  0.83091472  0.45284012     0.04730
C2977       C  0.76199500  0.88602696  0.48419541    -0.21080
C2978       C  0.76923232  0.88576128  0.45467924    -0.07640
C2979       C  0.79850291  0.88744233  0.44631310     0.13230
C2980       C  0.81959250  0.88721806  0.46769873    -0.21130
C2981       C  0.81250246  0.88617294  0.49730928    -0.07650
C2982       C  0.78318133  0.88627460  0.50560760     0.13210
C2983       C  0.77379581  0.88672419  0.53669428    -0.24480
H2984       H  0.73951419  0.88507565  0.49066228     0.14500
H2985       H  0.84197059  0.88776789  0.46085582     0.14530
C2986       C  0.80878858  0.89021072  0.41545872    -0.24430
H2987       H  0.74995896  0.88757391  0.53896760     0.04740
H2988       H  0.78283774  0.90618078  0.54714242     0.07970
H2989       H  0.78126540  0.86700193  0.54787197     0.07970
H2990       H  0.82317592  0.90922167  0.41356700     0.07950
H2991       H  0.79131444  0.89347656  0.39975988     0.07950
H2992       H  0.82113620  0.87074566  0.40926721     0.04730
C2993       C  0.64344622  0.89959064  0.50355520    -0.21080
C2994       C  0.63322632  0.87994955  0.48285769    -0.07640
C2995       C  0.62235339  0.85318582  0.49239500     0.13230
C2996       C  0.62664625  0.84496660  0.52110465    -0.21130
C2997       C  0.63888733  0.86368768  0.54131062    -0.07650
C2998       C  0.64516818  0.89214300  0.53296018     0.13210
C2999       C  0.65427826  0.91435102  0.55462611    -0.24480
H3000       H  0.65098633  0.92051630  0.49651144     0.14500
H3001       H  0.62015458  0.82367763  0.52770359     0.14530
C3002       C  0.60639880  0.83293257  0.47286775    -0.24430
H3003       H  0.65782065  0.93564124  0.54435136     0.04740
H3004       H  0.67465413  0.90772267  0.56479537     0.07970
H3005       H  0.63735722  0.91677400  0.57148339     0.07970
H3006       H  0.62085951  0.82462866  0.45591548     0.07950
H3007       H  0.58779605  0.84434634  0.46319905     0.07950
H3008       H  0.59779196  0.81401321  0.48477486     0.04730
C3009       C  0.65642468  0.77638207  0.39094587    -0.21080
C3010       C  0.63488195  0.79643257  0.39593780    -0.07640
C3011       C  0.60620768  0.78689002  0.39991855     0.13230
C3012       C  0.60072366  0.75719018  0.40299923    -0.21130
C3013       C  0.62304848  0.73690740  0.40009906    -0.07650
C3014       C  0.65104142  0.74697625  0.39249141     0.13210
C3015       C  0.67599782  0.72733113  0.38674832    -0.24480
H3016       H  0.67786507  0.78380143  0.38606643     0.14500
H3017       H  0.57907988  0.74984137  0.40795561     0.14530
C3018       C  0.58156297  0.80783080  0.40054139    -0.24430
H3019       H  0.69600021  0.73912756  0.38077058     0.04740
H3020       H  0.67037535  0.71332481  0.36820800     0.07970
H3021       H  0.68091462  0.71455062  0.40638919     0.07970
H3022       H  0.58040289  0.81918016  0.37945424     0.07950
H3023       H  0.58474316  0.82391625  0.41775814     0.07950
H3024       H  0.56060940  0.79686072  0.40436953     0.04730
C3025       C  0.65340059  0.99489528  0.39937774    -0.21080
C3026       C  0.63348022  0.97589150  0.38698534    -0.07640
C3027       C  0.60843495  0.98711042  0.37412570     0.13230
C3028       C  0.60477661  0.01706115  0.37222284    -0.21130
C3029       C  0.62622109  0.03648972  0.38171374    -0.07650
C3030       C  0.65023380  0.02497204  0.39693025     0.13210
C3031       C  0.67334167  0.04382988  0.40970245    -0.24480
H3032       H  0.67255919  0.98611385  0.40939488     0.14500
H3033       H  0.58601135  0.02513449  0.36096714     0.14530
C3034       C  0.58630951  0.96740895  0.36092167    -0.24430
H3035       H  0.68889782  0.03124624  0.42279126     0.04740
H3036       H  0.66338565  0.06013598  0.42409110     0.07970
H3037       H  0.68584433  0.05452526  0.39227698     0.07970
H3038       H  0.57772992  0.95262033  0.37773284     0.07950
H3039       H  0.59634407  0.95462268  0.34331071     0.07950
H3040       H  0.56793117  0.97953014  0.35162494     0.04730
C3041       C  0.74874390  0.99121036  0.39172508    -0.21080
C3042       C  0.75684696  0.96413287  0.38046563    -0.07640
C3043       C  0.78476790  0.96178784  0.36773163     0.13230
C3044       C  0.80331336  0.98543122  0.36743244    -0.21130
C3045       C  0.79555644  0.01208445  0.37875238    -0.07650
C3046       C  0.76785036  0.01510737  0.39125942     0.13210
C3047       C  0.75762464  0.04330147  0.40332589    -0.24480
H3048       H  0.72733209  0.99382907  0.40078243     0.14500
H3049       H  0.82448429  0.98276755  0.35800773     0.14530
C3050       C  0.79620094  0.93567275  0.35241644    -0.24430
H3051       H  0.75172416  0.04059621  0.42645799     0.04740
H3052       H  0.73840784  0.05056254  0.39113829     0.07970
H3053       H  0.77422687  0.06040420  0.40168741     0.07970
H3054       H  0.78144120  0.91751890  0.35266559     0.07950
H3055       H  0.81662308  0.92862866  0.36264629     0.07950
H3056       H  0.80069800  0.94101873  0.32940704     0.04730
C3057       C  0.61460729  0.87465603  0.28198568    -0.21080
C3058       C  0.63513624  0.89197541  0.29606096    -0.07640
C3059       C  0.65118060  0.91191179  0.27966428     0.13230
C3060       C  0.65000551  0.91080922  0.24962127    -0.21130
C3061       C  0.62865139  0.89511651  0.23525539    -0.07650
C3062       C  0.61013445  0.87724887  0.25175345     0.13210
C3063       C  0.58639621  0.86058534  0.23738798    -0.24480
H3064       H  0.60200473  0.85948422  0.29454837     0.14500
H3065       H  0.66432891  0.92451109  0.23756205     0.14530
C3066       C  0.66728894  0.93647416  0.29363766    -0.24430
H3067       H  0.57434395  0.84713515  0.25318855     0.04740
H3068       H  0.59570202  0.84629165  0.22058359     0.07970
H3069       H  0.57092398  0.87557799  0.22710017     0.07970
H3070       H  0.68346208  0.92891476  0.30928499     0.07950
H3071       H  0.65164881  0.95056881  0.30498487     0.07950
H3072       H  0.67891823  0.94975897  0.27745015     0.04730
C3073       C  0.76856941  0.65759660  0.38234073    -0.21080
C3074       C  0.78632526  0.64081215  0.39980957    -0.07640
C3075       C  0.77609203  0.61460619  0.41084533     0.13230
C3076       C  0.74662389  0.60837303  0.40845451    -0.21130
C3077       C  0.72748083  0.62853889  0.39638650    -0.07650
C3078       C  0.73918953  0.65144041  0.37995515     0.13210
C3079       C  0.72119315  0.66992618  0.36059439    -0.24480
H3080       H  0.77754297  0.67612554  0.37130225     0.14500
H3081       H  0.73820602  0.58917294  0.41872058     0.14530
C3082       C  0.79602322  0.59390976  0.42581331    -0.24430
H3083       H  0.70834253  0.65631274  0.34572745     0.04740
H3084       H  0.70699119  0.68312403  0.37404518     0.07970
H3085       H  0.73457988  0.68479116  0.34734705     0.07970
H3086       H  0.80630507  0.60454154  0.44463669     0.07950
H3087       H  0.81309941  0.58685718  0.41051749     0.07950
H3088       H  0.78432631  0.57456837  0.43367158     0.04730
C3089       C  0.77056634  0.75850438  0.36652093    -0.21080
C3090       C  0.77814381  0.74477637  0.39261282    -0.07640
C3091       C  0.76125883  0.75166745  0.41742587     0.13230
C3092       C  0.74145693  0.77486245  0.41647043    -0.21130
C3093       C  0.73655300  0.79107626  0.39113270    -0.07650
C3094       C  0.74996919  0.78104263  0.36530992     0.13210
C3095       C  0.74323020  0.79400284  0.33628832    -0.24480
H3096       H  0.78170557  0.75232603  0.34693362     0.14500
H3097       H  0.73021610  0.78084874  0.43612946     0.14530
C3098       C  0.76367304  0.73474733  0.44515355    -0.24430
H3099       H  0.75407662  0.78230296  0.31841657     0.04740
H3100       H  0.75073368  0.81651252  0.33541116     0.07970
H3101       H  0.71965505  0.79299416  0.33232726     0.07970
H3102       H  0.78484958  0.73837895  0.45555650     0.07950
H3103       H  0.76075140  0.71151180  0.44057087     0.07950
H3104       H  0.74686624  0.74112313  0.46106054     0.04730
C3105       C  0.89351362  0.77457954  0.47271690    -0.21080
C3106       C  0.87012996  0.77612688  0.45341842    -0.07640
C3107       C  0.84711079  0.79506736  0.45949041     0.13230
C3108       C  0.84695587  0.80992696  0.48579623    -0.21130
C3109       C  0.86973014  0.80733996  0.50550357    -0.07650
C3110       C  0.89380861  0.79034865  0.49849773     0.13210
C3111       C  0.91919085  0.78786475  0.51859054    -0.24480
H3112       H  0.91129936  0.76023977  0.46799439     0.14500
H3113       H  0.82902724  0.82396497  0.49092170     0.14530
C3114       C  0.82228484  0.79916672  0.43900225    -0.24430
H3115       H  0.93581927  0.77299486  0.50996202     0.04740
H3116       H  0.91194646  0.77956258  0.53990289     0.07970
H3117       H  0.92947280  0.80917133  0.52153600     0.07970
H3118       H  0.81114751  0.77846268  0.43565257     0.07950
H3119       H  0.83036427  0.80744934  0.41796308     0.07950
H3120       H  0.80620034  0.81473123  0.44745709     0.04730
C3121       C  0.84473929  0.66284688  0.48844934    -0.21080
C3122       C  0.86730371  0.64487595  0.47961169    -0.07640
C3123       C  0.87975634  0.62657811  0.50047203     0.13230
C3124       C  0.86931368  0.62697835  0.52949220    -0.21130
C3125       C  0.84617027  0.64492761  0.53818750    -0.07650
C3126       C  0.83308506  0.66226710  0.51640744     0.13210
C3127       C  0.80601235  0.67976044  0.52115863    -0.24480
H3128       H  0.83598160  0.67806533  0.47322596     0.14500
H3129       H  0.87920530  0.61303026  0.54535966     0.14530
C3130       C  0.90445954  0.60736277  0.49229422    -0.24430
H3131       H  0.79851149  0.69047180  0.50106853     0.04740
H3132       H  0.80967261  0.69689853  0.53714309     0.07970
H3133       H  0.78820284  0.66566269  0.52845269     0.07970
H3134       H  0.92281366  0.62053632  0.48430270     0.07950
H3135       H  0.89756599  0.59239934  0.47495691     0.07950
H3136       H  0.91197939  0.59445540  0.51100727     0.04730
C3137       C  0.97822430  0.62477563  0.39115514    -0.21080
C3138       C  0.97018107  0.65379374  0.38685243    -0.07640
C3139       C  0.99254127  0.67296216  0.37776123     0.13230
C3140       C  0.02115730  0.66333997  0.37458017    -0.21130
C3141       C  0.02857167  0.63433360  0.37687149    -0.07650
C3142       C  0.00678454  0.61480431  0.38572533     0.13210
C3143       C  0.01369723  0.58352484  0.38978687    -0.24480
H3144       H  0.96184257  0.60950192  0.39778760     0.14500
H3145       H  0.03750800  0.67834400  0.36716429     0.14530
C3146       C  0.98650016  0.70274582  0.36729352    -0.24430
H3147       H  0.99470468  0.57127138  0.39777439     0.04740
H3148       H  0.03131598  0.58120248  0.40582742     0.07970
H3149       H  0.02059183  0.57396860  0.36892262     0.07970
H3150       H  0.97576967  0.71515702  0.38442802     0.07950
H3151       H  0.97327311  0.70102169  0.34753335     0.07950
H3152       H  0.00635792  0.71469100  0.36117465     0.04730
C3153       C  0.95425759  0.78361181  0.33778550    -0.21080
C3154       C  0.94802036  0.76903584  0.36354226    -0.07640
C3155       C  0.96488901  0.77390422  0.38836177     0.13230
C3156       C  0.98885313  0.79190790  0.38596748    -0.21130
C3157       C  0.99604551  0.80546370  0.35966924    -0.07650
C3158       C  0.97778019  0.80217789  0.33561893     0.13210
C3159       C  0.98182596  0.81925005  0.30828948    -0.24480
H3160       H  0.94059382  0.78050273  0.31919442     0.14500
H3161       H  0.00210133  0.79525883  0.40493852     0.14530
C3162       C  0.95900839  0.76011686  0.41735901    -0.24430
H3163       H  0.96444354  0.81506965  0.29242748     0.04740
H3164       H  0.00269579  0.81388239  0.29788688     0.07970
H3165       H  0.98109502  0.84233850  0.31368785     0.07970
H3166       H  0.97823061  0.74775730  0.42437399     0.07950
H3167       H  0.94037727  0.74525985  0.41721024     0.07950
H3168       H  0.95468374  0.77708190  0.43363455     0.04730
C3169       C  0.88680379  0.62291877  0.25222836    -0.21080
C3170       C  0.89191985  0.64678455  0.23419351    -0.07640
C3171       C  0.89311291  0.67452943  0.24667134     0.13230
C3172       C  0.89231288  0.67721053  0.27669671    -0.21130
C3173       C  0.88928938  0.65326305  0.29468081    -0.07650
C3174       C  0.88527010  0.62586004  0.28240334     0.13210
C3175       C  0.88138224  0.59955527  0.30100014    -0.24480
H3176       H  0.88587202  0.60163843  0.24279041     0.14500
H3177       H  0.89489804  0.69822039  0.28624082     0.14530
C3178       C  0.89657098  0.70148967  0.22900116    -0.24430
H3179       H  0.87986931  0.57970593  0.28779163     0.04740
H3180       H  0.86121058  0.60140186  0.31384278     0.07970
H3181       H  0.90002038  0.59728948  0.31583751     0.07970
H3182       H  0.87879154  0.70287387  0.21333739     0.07950
H3183       H  0.91754199  0.70184319  0.21763231     0.07950
H3184       H  0.89561817  0.72102406  0.24251712     0.04730
C3185       C  0.84770880  0.98212916  0.12915614    -0.21080
C3186       C  0.86937156  0.97813970  0.14964334    -0.07640
C3187       C  0.88487585  0.00237822  0.15987446     0.13230
C3188       C  0.87584016  0.03005237  0.15212883    -0.21130
C3189       C  0.85203971  0.03414982  0.13416154    -0.07650
C3190       C  0.83911674  0.00976123  0.12075123     0.13210
C3191       C  0.81494038  0.01215411  0.09906276    -0.24480
H3192       H  0.83632128  0.96350049  0.12094314     0.14500
H3193       H  0.88610189  0.04860229  0.16183930     0.14530
C3194       C  0.90883556  0.99977459  0.18149808    -0.24430
H3195       H  0.80796410  0.99079160  0.09099329     0.04740
H3196       H  0.82228309  0.02485977  0.08008311     0.07970
H3197       H  0.79578187  0.02243938  0.10905557     0.07970
H3198       H  0.92541975  0.98443096  0.17372656     0.07950
H3199       H  0.89957946  0.99283889  0.20241385     0.07950
H3200       H  0.91975186  0.02068371  0.18528369     0.04730
C3201       C  0.00008853  0.91190298  0.16992005    -0.21080
C3202       C  0.97915423  0.90191349  0.15043974    -0.07640
C3203       C  0.98801191  0.88918558  0.12419604     0.13230
C3204       C  0.01663408  0.88029494  0.12157353    -0.21130
C3205       C  0.03561289  0.88366021  0.14484860    -0.07650
C3206       C  0.02845754  0.90224737  0.16775102     0.13210
C3207       C  0.05008358  0.91058645  0.19057642    -0.24480
H3208       H  0.99362043  0.92343408  0.18923064     0.14500
H3209       H  0.02293776  0.86735448  0.10312505     0.14530
C3210       C  0.96724119  0.88347223  0.09983767    -0.24430
H3211       H  0.04086083  0.92622088  0.20618579     0.04740
H3212       H  0.06914765  0.92068957  0.18011475     0.07970
H3213       H  0.05717254  0.89162991  0.20311986     0.07970
H3214       H  0.95623671  0.90374531  0.09379223     0.07950
H3215       H  0.95093196  0.86720141  0.10602983     0.07950
H3216       H  0.97859781  0.87523738  0.08035472     0.04730
C3217       C  0.91185427  0.96802831  0.28008291    -0.21080
C3218       C  0.88621533  0.96077296  0.26560650    -0.07640
C3219       C  0.85949811  0.97009884  0.27720758     0.13230
C3220       C  0.85917899  0.98595208  0.30296127    -0.21130
C3221       C  0.88472695  0.99286141  0.31741118    -0.07650
C3222       C  0.91138385  0.98385031  0.30590887     0.13210
C3223       C  0.93926630  0.99096360  0.32091203    -0.24480
H3224       H  0.93237935  0.96099140  0.27135115     0.14500
H3225       H  0.83892380  0.99432481  0.31103991     0.14530
C3226       C  0.83133329  0.96500231  0.26192210    -0.24430
H3227       H  0.95816306  0.98174026  0.30940772     0.04740
H3228       H  0.93889367  0.98213751  0.34323053     0.07970
H3229       H  0.94213237  0.01459806  0.32190362     0.07970
H3230       H  0.82622672  0.94184268  0.26219677     0.07950
H3231       H  0.83269007  0.97293100  0.23929407     0.07950
H3232       H  0.81312398  0.97621712  0.27271759     0.04730
C3233       C  0.98737931  0.88244401  0.25481441    -0.21080
C3234       C  0.95805061  0.88653341  0.26142193    -0.07640
C3235       C  0.95040040  0.89562044  0.28963111     0.13230
C3236       C  0.97229571  0.90215750  0.30937763    -0.21130
C3237       C  0.00134764  0.89538826  0.30360654    -0.07650
C3238       C  0.00882504  0.88506585  0.27575408     0.13210
C3239       C  0.03857239  0.87445007  0.26809506    -0.24480
H3240       H  0.99363656  0.87552948  0.23331649     0.14500
H3241       H  0.96609906  0.90914674  0.33089085     0.14530
C3242       C  0.92003625  0.89527541  0.30129106    -0.24430
H3243       H  0.03979157  0.86604107  0.24566941     0.04740
H3244       H  0.04491279  0.85655315  0.28258207     0.07970
H3245       H  0.05401791  0.89234157  0.26965979     0.07970
H3246       H  0.90441160  0.88579408  0.28625485     0.07950
H3247       H  0.91316097  0.91722355  0.30731523     0.07950
H3248       H  0.91921902  0.88168739  0.32103528     0.04730
C3249       C  0.84847093  0.79019837  0.25912083    -0.21080
C3250       C  0.87630747  0.79379145  0.24736587    -0.07640
C3251       C  0.89957477  0.77857790  0.25995031     0.13230
C3252       C  0.89447892  0.76138553  0.28442383    -0.21130
C3253       C  0.86724041  0.75994860  0.29752985    -0.07650
C3254       C  0.84377883  0.77385523  0.28427961     0.13210
C3255       C  0.81383573  0.77148363  0.29659885    -0.24480
H3256       H  0.83044926  0.80141268  0.24946135     0.14500
H3257       H  0.91218101  0.74969524  0.29402035     0.14530
C3258       C  0.92974512  0.77987349  0.24770493    -0.24430
H3259       H  0.79774289  0.78249051  0.28275747     0.04740
H3260       H  0.81313880  0.78160847  0.31827051     0.07970
H3261       H  0.80759280  0.74850071  0.29833172     0.07970
H3262       H  0.93861012  0.80190563  0.24969812     0.07950
H3263       H  0.92951781  0.77336408  0.22462443     0.07950
H3264       H  0.94463885  0.76527344  0.25938035     0.04730
C3265       C  0.85545618  0.77449475  0.14372051    -0.21080
C3266       C  0.87437092  0.79418803  0.13042916    -0.07640
C3267       C  0.89717767  0.78357310  0.11331295     0.13230
C3268       C  0.90404663  0.75431930  0.11471253    -0.21130
C3269       C  0.88843634  0.73560917  0.13267786    -0.07650
C3270       C  0.86208830  0.74501306  0.14460644     0.13210
C3271       C  0.84133847  0.72423254  0.15837987    -0.24480
H3272       H  0.83730694  0.78245357  0.15617975     0.14500
H3273       H  0.92219822  0.74621454  0.10244625     0.14530
C3274       C  0.91502853  0.80350031  0.09481026    -0.24430
H3275       H  0.82195969  0.73529582  0.16706170     0.04740
H3276       H  0.85183603  0.71266628  0.17627348     0.07970
H3277       H  0.83418705  0.70833807  0.14202027     0.07970
H3278       H  0.92553135  0.82016871  0.10823934     0.07950
H3279       H  0.90089863  0.81419691  0.07876030     0.07950
H3280       H  0.93217588  0.79175178  0.08290018     0.04730
C3281       C  0.79529774  0.87664566  0.30955183    -0.21080
C3282       C  0.76539076  0.87898961  0.30615808    -0.07640
C3283       C  0.75352682  0.88281977  0.27830918     0.13230
C3284       C  0.77204311  0.88683266  0.25494209    -0.21130
C3285       C  0.80183040  0.88606438  0.25872703    -0.07650
C3286       C  0.81378241  0.88030761  0.28608172     0.13210
C3287       C  0.84582396  0.87952039  0.29098253    -0.24480
H3288       H  0.80434064  0.87321152  0.33086485     0.14500
H3289       H  0.76326015  0.89032008  0.23351548     0.14530
C3290       C  0.72163329  0.88213523  0.27275685    -0.24430
H3291       H  0.85119615  0.87632714  0.31415372     0.04740
H3292       H  0.85544316  0.90022440  0.28399390     0.07970
H3293       H  0.85563920  0.86155072  0.27869717     0.07970
H3294       H  0.71174167  0.90134484  0.28227933     0.07950
H3295       H  0.71193710  0.86237843  0.28211476     0.07950
H3296       H  0.71667927  0.88263059  0.24933336     0.04730
C3297       C  0.75228990  0.86194157  0.17582106    -0.21080
C3298       C  0.77524674  0.87075154  0.15789814    -0.07640
C3299       C  0.76918760  0.88679111  0.13260881     0.13230
C3300       C  0.74068770  0.89527397  0.12711912    -0.21130
C3301       C  0.71840899  0.88881910  0.14661878    -0.07650
C3302       C  0.72400562  0.87128922  0.17076451     0.13210
C3303       C  0.70032018  0.86317023  0.19157603    -0.24480
H3304       H  0.75676168  0.84949522  0.19511002     0.14500
H3305       H  0.73607720  0.90867320  0.10851344     0.14530
C3306       C  0.79252422  0.89542697  0.11152955    -0.24430
H3307       H  0.70817948  0.84850496  0.20877214     0.04740
H3308       H  0.68270716  0.85210034  0.17978472     0.07970
H3309       H  0.69167577  0.88274674  0.20209729     0.07970
H3310       H  0.80477688  0.87615468  0.10457195     0.07950
H3311       H  0.80735240  0.91119966  0.12157510     0.07950
H3312       H  0.78342569  0.90571394  0.09190147     0.04730
C3313       C  0.75819270  0.59452130  0.87367310    -0.21080
C3314       C  0.77825822  0.61697605  0.87395737    -0.07640
C3315       C  0.76812739  0.64563399  0.87374885     0.13230
C3316       C  0.73825560  0.65099994  0.87147381    -0.21130
C3317       C  0.71808366  0.62844507  0.87006586    -0.07650
C3318       C  0.72836232  0.59971404  0.87226502     0.13210
C3319       C  0.70846031  0.57404810  0.87179349    -0.24480
H3320       H  0.76602325  0.57262089  0.87418962     0.14500
H3321       H  0.73067688  0.67292264  0.86961222     0.14530
C3322       C  0.78879430  0.67059633  0.87447260    -0.24430
H3323       H  0.72047345  0.55354667  0.87378220     0.04740
H3324       H  0.69661124  0.57317248  0.85108331     0.07970
H3325       H  0.69305995  0.57515357  0.89018579     0.07970
H3326       H  0.80398354  0.66930950  0.85592841     0.07950
H3327       H  0.80114728  0.67027356  0.89497769     0.07950
H3328       H  0.77734143  0.69148077  0.87316562     0.04730
C3329       C  0.88816607  0.61428151  0.77175291    -0.21080
C3330       C  0.86539693  0.61630411  0.79205108    -0.07640
C3331       C  0.83688294  0.61799378  0.78113787     0.13230
C3332       C  0.83187819  0.61621037  0.75140063    -0.21130
C3333       C  0.85421814  0.61448364  0.73116168    -0.07650
C3334       C  0.88293699  0.61421606  0.74143269     0.13210
C3335       C  0.90783455  0.61268315  0.72060625    -0.24480
H3336       H  0.91006199  0.61244943  0.77963624     0.14500
H3337       H  0.80981557  0.61594982  0.74387473     0.14530
C3338       C  0.81069710  0.61889065  0.80009679    -0.24430
H3339       H  0.92881311  0.61185599  0.73208789     0.04740
H3340       H  0.90788478  0.63194142  0.70644318     0.07970
H3341       H  0.90585500  0.59310982  0.70706499     0.07970
H3342       H  0.81379070  0.63393534  0.81831860     0.07950
H3343       H  0.80518877  0.59671695  0.80672807     0.07950
H3344       H  0.79172722  0.62664610  0.78812025     0.04730
C3345       C  0.96964225  0.65064864  0.89596649    -0.21080
C3346       C  0.96277211  0.62843845  0.87669639    -0.07640
C3347       C  0.98603885  0.61231821  0.86480634     0.13230
C3348       C  0.01420710  0.61547076  0.87617574    -0.21130
C3349       C  0.02052434  0.63568619  0.89785607    -0.07650
C3350       C  0.99801484  0.65501775  0.90609585     0.13210
C3351       C  0.00304110  0.68013723  0.92609817    -0.24480
H3352       H  0.95237176  0.66383493  0.90450554     0.14500
H3353       H  0.03127789  0.60157257  0.86843586     0.14530
C3354       C  0.98172859  0.59255429  0.83934548    -0.24430
H3355       H  0.98334924  0.69341573  0.92885999     0.04740
H3356       H  0.02009420  0.69422934  0.91692738     0.07970
H3357       H  0.00939763  0.67268646  0.94792755     0.07970
H3358       H  0.97193499  0.60473832  0.82123250     0.07950
H3359       H  0.96764960  0.57421350  0.84485071     0.07950
H3360       H  0.00250474  0.58351648  0.83157089     0.04730
C3361       C  0.90611209  0.64336697  0.98792827    -0.21080
C3362       C  0.89022547  0.62135060  0.97526510    -0.07640
C3363       C  0.87223875  0.60382092  0.99282531     0.13230
C3364       C  0.87584891  0.60450354  0.02291325    -0.21130
C3365       C  0.89300674  0.62565549  0.03560849    -0.07650
C3366       C  0.90548031  0.64732994  0.01786452     0.13210
C3367       C  0.91737175  0.67526317  0.02916403    -0.24480
H3368       H  0.91778527  0.65842271  0.97430293     0.14500
H3369       H  0.86468229  0.58912521  0.03657348     0.14530
C3370       C  0.84828349  0.58574899  0.98039706    -0.24430
H3371       H  0.90650956  0.69335881  0.01798932     0.04740
H3372       H  0.94084215  0.67676645  0.02461747     0.07970
H3373       H  0.91331855  0.67839889  0.05247769     0.07970
H3374       H  0.85641422  0.56995220  0.96474253     0.07950
H3375       H  0.83260424  0.59989229  0.96924835     0.07950
H3376       H  0.83644124  0.57379855  0.99753345     0.04730
C3377       C  0.85604746  0.24761108  0.14599255    -0.21080
C3378       C  0.85337775  0.23128284  0.12047762    -0.07640
C3379       C  0.85572684  0.24538942  0.09351490     0.13230
C3380       C  0.85854896  0.27540726  0.09276899    -0.21130
C3381       C  0.85954147  0.29193363  0.11810843    -0.07650
C3382       C  0.85893951  0.27777837  0.14510347     0.13210
C3383       C  0.85946738  0.29458186  0.17288604    -0.24480
H3384       H  0.85392135  0.23697483  0.16675271     0.14500
H3385       H  0.85909433  0.28607737  0.07214888     0.14530
C3386       C  0.85527069  0.22894069  0.06541774    -0.24430
H3387       H  0.85803807  0.28030089  0.19209263     0.04740
H3388       H  0.84091541  0.30962781  0.17355549     0.07970
H3389       H  0.87986479  0.30698784  0.17432332     0.07970
H3390       H  0.83372601  0.21928153  0.06176376     0.07950
H3391       H  0.87185223  0.21176980  0.06588792     0.07950
H3392       H  0.86009788  0.24303186  0.04665650     0.04730
C3393       C  0.77323868  0.36845532  0.15894433    -0.21080
C3394       C  0.78034390  0.38606547  0.13531078    -0.07640
C3395       C  0.75729936  0.39883541  0.11953930     0.13230
C3396       C  0.72872250  0.38991761  0.12472607    -0.21130
C3397       C  0.72202609  0.36905504  0.14562399    -0.07650
C3398       C  0.74445716  0.36019515  0.16467526     0.13210
C3399       C  0.73871319  0.34157752  0.19080975    -0.24480
H3400       H  0.79043039  0.35962956  0.17202359     0.14500
H3401       H  0.71172758  0.39808021  0.11097466     0.14530
C3402       C  0.76225738  0.42158107  0.09672870    -0.24430
H3403       H  0.75807335  0.33980823  0.20477282     0.04740
H3404       H  0.73282446  0.31945435  0.18425720     0.07970
H3405       H  0.72115014  0.35111350  0.20404935     0.07970
H3406       H  0.77270488  0.41230581  0.07729571     0.07950
H3407       H  0.77581866  0.43909587  0.10567484     0.07950
H3408       H  0.74167737  0.43131424  0.08942224     0.04730
C3409       C  0.89344293  0.48508365  0.16064658    -0.21080
C3410       C  0.88157552  0.47524010  0.13470807    -0.07640
C3411       C  0.87097913  0.49580992  0.11479346     0.13230
C3412       C  0.87503642  0.52540003  0.11994659    -0.21130
C3413       C  0.88946396  0.53549194  0.14465230    -0.07650
C3414       C  0.89742595  0.51472802  0.16605147     0.13210
C3415       C  0.91163115  0.52302159  0.19413664    -0.24480
H3416       H  0.90147470  0.46939443  0.17595532     0.14500
H3417       H  0.86829300  0.54059077  0.10354124     0.14530
C3418       C  0.85593901  0.48726715  0.08732267    -0.24430
H3419       H  0.91423833  0.50428051  0.20877305     0.04740
H3420       H  0.89818419  0.53909145  0.20566196     0.07970
H3421       H  0.93353392  0.53176620  0.18997587     0.07970
H3422       H  0.85367750  0.46368193  0.08494350     0.07950
H3423       H  0.86815470  0.49578140  0.06850974     0.07950
H3424       H  0.83394933  0.49664869  0.08709374     0.04730
C3425       C  0.91717385  0.49095666  0.00974918    -0.21080
C3426       C  0.89233934  0.47469984  0.01574346    -0.07640
C3427       C  0.86664322  0.48060777  0.00025946     0.13230
C3428       C  0.86738677  0.50041545  0.97738800    -0.21130
C3429       C  0.89286863  0.51480631  0.97006927    -0.07650
C3430       C  0.91780245  0.51072540  0.98692783     0.13210
C3431       C  0.94572735  0.52540376  0.97940533    -0.24480
H3432       H  0.93681973  0.48682058  0.02167892     0.14500
H3433       H  0.84824516  0.50400256  0.96448123     0.14530
C3434       C  0.83839695  0.46626167  0.00739662    -0.24430
H3435       H  0.96334918  0.51938098  0.99443529     0.04740
H3436       H  0.94294305  0.54905230  0.98043630     0.07970
H3437       H  0.95230157  0.51897814  0.95724132     0.07970
H3438       H  0.83321668  0.46910217  0.03065535     0.07950
H3439       H  0.83968229  0.44322343  0.00213997     0.07950
H3440       H  0.82031509  0.47533966  0.99464275     0.04730
C3441       C  0.98820154  0.36606880  0.11052515    -0.21080
C3442       C  0.96944620  0.38700699  0.12160523    -0.07640
C3443       C  0.98016885  0.40597771  0.14300365     0.13230
C3444       C  0.00970820  0.40550093  0.15031884    -0.21130
C3445       C  0.02938805  0.38746091  0.13598173    -0.07650
C3446       C  0.01798096  0.36626040  0.11729777     0.13210
C3447       C  0.03755006  0.34413070  0.10421260    -0.24480
H3448       H  0.97967266  0.35000158  0.09594955     0.14500
H3449       H  0.01797814  0.42170484  0.16488971     0.14530
C3450       C  0.96104426  0.42840348  0.15659103    -0.24430
H3451       H  0.02576091  0.32949093  0.08942408     0.04740
H3452       H  0.04740602  0.33111217  0.12168871     0.07970
H3453       H  0.05492301  0.35483114  0.09190182     0.07970
H3454       H  0.94282839  0.41794985  0.16815088     0.07950
H3455       H  0.95255746  0.44291652  0.13960844     0.07950
H3456       H  0.97293559  0.44180295  0.17244655     0.04730
C3457       C  0.10280933  0.38874680  0.77015394    -0.21080
C3458       C  0.11815156  0.37320479  0.79070469    -0.07640
C3459       C  0.14316555  0.35822587  0.78245613     0.13230
C3460       C  0.15035084  0.35647094  0.75301155    -0.21130
C3461       C  0.13248869  0.36861811  0.73164460    -0.07650
C3462       C  0.10876275  0.38592539  0.74058608     0.13210
C3463       C  0.08834979  0.40021328  0.71967615    -0.24480
H3464       H  0.08541223  0.40238440  0.77737594     0.14500
H3465       H  0.16892179  0.34385161  0.74663490     0.14530
C3466       C  0.16170258  0.34346778  0.80461419    -0.24430
H3467       H  0.07211329  0.41370509  0.73097657     0.04740
H3468       H  0.07614065  0.38373408  0.70739228     0.07970
H3469       H  0.10055145  0.41436496  0.70467235     0.07970
H3470       H  0.14884400  0.32698789  0.81630655     0.07950
H3471       H  0.16989312  0.35950894  0.82034901     0.07950
H3472       H  0.18055090  0.33270158  0.79448716     0.04730
C3473       C  0.08684035  0.27800155  0.85085015    -0.21080
C3474       C  0.10374196  0.28945936  0.87280224    -0.07640
C3475       C  0.12286761  0.27130302  0.88790017     0.13230
C3476       C  0.12370726  0.24158660  0.88103798    -0.21130
C3477       C  0.10586336  0.22987171  0.85931197    -0.07650
C3478       C  0.08750316  0.24903249  0.84362138     0.13210
C3479       C  0.06920383  0.24036185  0.81791722    -0.24480
H3480       H  0.07311305  0.29233589  0.83860795     0.14500
H3481       H  0.13845256  0.22760741  0.89245537     0.14530
C3482       C  0.14194127  0.28317703  0.91122633    -0.24430
H3483       H  0.05724980  0.25873122  0.80842922     0.04740
H3484       H  0.05270449  0.22433798  0.82440994     0.07970
H3485       H  0.08310998  0.23166683  0.80044491     0.07970
H3486       H  0.12849804  0.29303290  0.92846142     0.07950
H3487       H  0.15651397  0.29976231  0.90194891     0.07950
H3488       H  0.15542237  0.26614758  0.92115329     0.04730
C3489       C  0.10364391  0.49483249  0.86387069    -0.21080
C3490       C  0.11994055  0.47531420  0.88050328    -0.07640
C3491       C  0.13696374  0.48612739  0.90344817     0.13230
C3492       C  0.13524612  0.51531667  0.91053843    -0.21130
C3493       C  0.11713281  0.53402208  0.89542368    -0.07650
C3494       C  0.10203413  0.52408335  0.87113213     0.13210
C3495       C  0.08355399  0.54408675  0.85362203    -0.24480
H3496       H  0.09071328  0.48684076  0.84612280     0.14500
H3497       H  0.14725597  0.52337631  0.92888450     0.14530
C3498       C  0.15551345  0.46713722  0.92193931    -0.24430
H3499       H  0.07310241  0.53281741  0.83526674     0.04740
H3500       H  0.09707172  0.56174572  0.84472679     0.07970
H3501       H  0.06637692  0.55333561  0.86753914     0.07970
H3502       H  0.17105453  0.45520081  0.90820468     0.07950
H3503       H  0.14169490  0.45209656  0.93422050     0.07950
H3504       H  0.16810302  0.47962720  0.93801517     0.04730
C3505       C  0.02405719  0.50747491  0.90946701    -0.21080
C3506       C  0.02269182  0.48636974  0.88778080    -0.07640
C3507       C  0.00443921  0.49124622  0.86371921     0.13230
C3508       C  0.98434407  0.51352003  0.86504239    -0.21130
C3509       C  0.98197631  0.53114901  0.88951643    -0.07650
C3510       C  0.00418691  0.53016827  0.91041057     0.13210
C3511       C  0.00731715  0.55248824  0.93369315    -0.24480
H3512       H  0.03957691  0.50533330  0.92679727     0.14500
H3513       H  0.96884408  0.51563099  0.84767871     0.14530
C3514       C  0.00447151  0.47258118  0.83712469    -0.24430
H3515       H  0.02673867  0.54858201  0.94707172     0.04740
H3516       H  0.98861239  0.55242486  0.94849869     0.07970
H3517       H  0.00954100  0.57395074  0.92353080     0.07970
H3518       H  0.02676134  0.47032896  0.82859144     0.07950
H3519       H  0.99514785  0.45137426  0.84244164     0.07950
H3520       H  0.99105228  0.48179009  0.81956240     0.04730
C3521       C  0.09741292  0.38644243  0.98893281    -0.21080
C3522       C  0.12079537  0.39232670  0.97081876    -0.07640
C3523       C  0.14845651  0.39615576  0.98255896     0.13230
C3524       C  0.15112492  0.39879013  0.01261444    -0.21130
C3525       C  0.12682553  0.39656311  0.03085332    -0.07650
C3526       C  0.10007085  0.38803487  0.01888957     0.13210
C3527       C  0.07401181  0.38116243  0.03707122    -0.24480
H3528       H  0.07668050  0.38140825  0.97956314     0.14500
H3529       H  0.17199944  0.40394286  0.02174148     0.14530
C3530       C  0.17484150  0.39790856  0.96357782    -0.24430
H3531       H  0.05579551  0.37316460  0.02389090     0.04740
H3532       H  0.06632057  0.40053092  0.04869192     0.07970
H3533       H  0.07988345  0.36387604  0.05237598     0.07970
H3534       H  0.17306727  0.41607315  0.94830176     0.07950
H3535       H  0.17708428  0.37768460  0.95108859     0.07950
H3536       H  0.19476607  0.40096496  0.97648132     0.04730
C3537       C  0.00643940  0.38044767  0.98580934    -0.21080
C3538       C  0.00319461  0.40075890  0.96363002    -0.07640
C3539       C  0.98165427  0.42206282  0.96607182     0.13230
C3540       C  0.96263145  0.42126324  0.98952530    -0.21130
C3541       C  0.96435865  0.39975632  0.01062017    -0.07650
C3542       C  0.98718275  0.37979654  0.00946140     0.13210
C3543       C  0.99115591  0.35800461  0.03296450    -0.24480
H3544       H  0.02326938  0.36443812  0.98401475     0.14500
H3545       H  0.94498925  0.43649486  0.99042050     0.14530
C3546       C  0.97836864  0.44564103  0.94391484    -0.24430
H3547       H  0.00913561  0.34302716  0.02809631     0.04740
H3548       H  0.97120487  0.34526137  0.03617117     0.07970
H3549       H  0.99646365  0.36964515  0.05308041     0.07970
H3550       H  0.97309465  0.43647885  0.92243546     0.07950
H3551       H  0.99870213  0.45810865  0.94249073     0.07950
H3552       H  0.96083199  0.46080848  0.94977568     0.04730
C3553       C  0.60439648  0.37955345  0.78362729    -0.21080
C3554       C  0.63098091  0.38996068  0.79410722    -0.07640
C3555       C  0.64876776  0.40600619  0.77507466     0.13230
C3556       C  0.64189101  0.40757099  0.74577192    -0.21130
C3557       C  0.61550076  0.39760942  0.73513123    -0.07650
C3558       C  0.59612755  0.38395741  0.75441129     0.13210
C3559       C  0.56729603  0.37355351  0.74398005    -0.24480
H3560       H  0.59014024  0.36807510  0.79823084     0.14500
H3561       H  0.65698672  0.41794818  0.73127257     0.14530
C3562       C  0.67367262  0.42393256  0.78567235    -0.24430
H3563       H  0.55482068  0.36302568  0.76159628     0.04740
H3564       H  0.57040045  0.35777547  0.72625894     0.07970
H3565       H  0.55453857  0.39197498  0.73577390     0.07970
H3566       H  0.69057008  0.41016815  0.79464859     0.07950
H3567       H  0.66601308  0.43910909  0.80249713     0.07950
H3568       H  0.68368496  0.43683247  0.76806209     0.04730
C3569       C  0.77984081  0.45454119  0.86493600    -0.21080
C3570       C  0.75342676  0.46178067  0.87774165    -0.07640
C3571       C  0.75058428  0.48856379  0.89170410     0.13230
C3572       C  0.77462772  0.50717360  0.89298234    -0.21130
C3573       C  0.80150762  0.49921954  0.88116851    -0.07650
C3574       C  0.80396841  0.47232157  0.86691114     0.13210
C3575       C  0.83166650  0.46183905  0.85319202    -0.24480
H3576       H  0.78184396  0.43413398  0.85380759     0.14500
H3577       H  0.77255952  0.52777540  0.90364564     0.14530
C3578       C  0.72277594  0.49706716  0.90600208    -0.24430
H3579       H  0.82887284  0.44084324  0.84215481     0.04740
H3580       H  0.84836224  0.45875953  0.87004613     0.07970
H3581       H  0.83935013  0.47739281  0.83669978     0.07970
H3582       H  0.71722775  0.48107558  0.92294512     0.07950
H3583       H  0.70533780  0.49803881  0.88965088     0.07950
H3584       H  0.72440025  0.51845734  0.91647524     0.04730
C3585       C  0.60062480  0.47549650  0.85791884    -0.21080
C3586       C  0.61965955  0.46872808  0.88028630    -0.07640
C3587       C  0.63007398  0.49092566  0.89809100     0.13230
C3588       C  0.62425161  0.51975157  0.89077951    -0.21130
C3589       C  0.60772225  0.52693138  0.86621063    -0.07650
C3590       C  0.59404940  0.50412567  0.85086805     0.13210
C3591       C  0.57383851  0.50917045  0.82589013    -0.24480
H3592       H  0.59243921  0.45822609  0.84452100     0.14500
H3593       H  0.63409155  0.53669795  0.90341246     0.14530
C3594       C  0.64841552  0.48408215  0.92396034    -0.24430
H3595       H  0.56389347  0.48887178  0.81816794     0.04740
H3596       H  0.58576235  0.51851941  0.80732481     0.07970
H3597       H  0.55605700  0.52363128  0.83270367     0.07970
H3598       H  0.66743912  0.47135633  0.91721040     0.07950
H3599       H  0.63563533  0.47119859  0.93965309     0.07950
H3600       H  0.65605111  0.50383833  0.93500010     0.04730
C3601       C  0.62178465  0.39501372  0.00090533    -0.21080
C3602       C  0.62256690  0.37283175  0.98024633    -0.07640
C3603       C  0.61530531  0.34455109  0.98915330     0.13230
C3604       C  0.60835780  0.33926670  0.01818809    -0.21130
C3605       C  0.60958740  0.36095578  0.03920849    -0.07650
C3606       C  0.61531955  0.38943450  0.03026240     0.13210
C3607       C  0.61424007  0.41393808  0.05143067    -0.24480
H3608       H  0.62705605  0.41669768  0.99417031     0.14500
H3609       H  0.60421621  0.31732403  0.02491880     0.14530
C3610       C  0.61771287  0.31898488  0.96935681    -0.24430
H3611       H  0.61760398  0.43493775  0.04051321     0.04740
H3612       H  0.63131218  0.41147277  0.06795722     0.07970
H3613       H  0.59279175  0.41438502  0.06220673     0.07970
H3614       H  0.64074032  0.31506484  0.96446323     0.07950
H3615       H  0.60510806  0.32238298  0.94933881     0.07950
H3616       H  0.60940749  0.29904337  0.97966681     0.04730
C3617       C  0.75923338  0.38071782  0.98449621    -0.21080
C3618       C  0.76451881  0.39187535  0.95687166    -0.07640
C3619       C  0.79280156  0.40064886  0.94934084     0.13230
C3620       C  0.81498223  0.39829239  0.96978235    -0.21130
C3621       C  0.80948060  0.38740019  0.99748629    -0.07650
C3622       C  0.78140882  0.37744260  0.00455402     0.13210
C3623       C  0.77411146  0.36145510  0.03207878    -0.24480
H3624       H  0.73790116  0.37267905  0.98988431     0.14500
H3625       H  0.83652482  0.40567854  0.96439141     0.14530
C3626       C  0.79937695  0.41403675  0.92053359    -0.24430
H3627       H  0.75803915  0.37382017  0.04477769     0.04740
H3628       H  0.76455104  0.34028659  0.02651919     0.07970
H3629       H  0.79295368  0.35691624  0.04587062     0.07970
H3630       H  0.78599403  0.43354784  0.91837735     0.07950
H3631       H  0.79473693  0.39884471  0.90270141     0.07950
H3632       H  0.82235040  0.42058989  0.91862940     0.04730
C3633       C  0.66302373  0.27279819  0.90374590    -0.21080
C3634       C  0.64188863  0.29215384  0.89481855    -0.07640
C3635       C  0.61473554  0.28156240  0.88578893     0.13230
C3636       C  0.60896249  0.25193586  0.88793482    -0.21130
C3637       C  0.63011362  0.23265109  0.89748013    -0.07650
C3638       C  0.65801887  0.24325130  0.90425472     0.13210
C3639       C  0.68303221  0.22476518  0.91352443    -0.24480
H3640       H  0.68369223  0.28081408  0.91092360     0.14500
H3641       H  0.58755191  0.24389298  0.88317025     0.14530
C3642       C  0.59124400  0.30144268  0.87567379    -0.24430
H3643       H  0.70171084  0.22904445  0.89923320     0.04740
H3644       H  0.67895647  0.20157907  0.91212714     0.07970
H3645       H  0.68924893  0.23019583  0.93602799     0.07970
H3646       H  0.59822731  0.31268204  0.85565118     0.07950
H3647       H  0.58633200  0.31746519  0.89274762     0.07950
H3648       H  0.57105945  0.28959563  0.87069058     0.04730
C3649       C  0.98437888  0.16054504  0.90012583    -0.21080
C3650       C  0.96175708  0.14318981  0.88947316    -0.07640
C3651       C  0.96957548  0.11879466  0.87266317     0.13230
C3652       C  0.99848151  0.11522079  0.86364236    -0.21130
C3653       C  0.02007635  0.13497509  0.87109261    -0.07650
C3654       C  0.01329507  0.15685739  0.89095990     0.13210
C3655       C  0.03659416  0.17639572  0.90216897    -0.24480
H3656       H  0.97923980  0.17800655  0.91469449     0.14500
H3657       H  0.00407240  0.09746827  0.84955867     0.14530
C3658       C  0.94786496  0.09649095  0.86363675    -0.24430
H3659       H  0.02790040  0.19251815  0.91756561     0.04740
H3660       H  0.04705648  0.18794565  0.88392651     0.07970
H3661       H  0.05312645  0.16347162  0.91359092     0.07970
H3662       H  0.93179676  0.10603745  0.84894646     0.07950
H3663       H  0.93688908  0.08758746  0.88305432     0.07950
H3664       H  0.95814639  0.07836354  0.85191977     0.04730
C3665       C  0.84658416  0.11167763  0.98238797    -0.21080
C3666       C  0.87061100  0.12904452  0.97681321    -0.07640
C3667       C  0.88629455  0.14013047  0.00078822     0.13230
C3668       C  0.87530712  0.13686943  0.02906314    -0.21130
C3669       C  0.84937812  0.12227094  0.03435750    -0.07650
C3670       C  0.83562686  0.10820194  0.01064620     0.13210
C3671       C  0.80809886  0.09117972  0.01418506    -0.24480
H3672       H  0.83466482  0.10298715  0.96427019     0.14500
H3673       H  0.88643764  0.14685514  0.04701687     0.14530
C3674       C  0.91442376  0.15604593  0.99679504    -0.24430
H3675       H  0.80040030  0.08233397  0.99329837     0.04740
H3676       H  0.79073891  0.10513928  0.02289895     0.07970
H3677       H  0.81176909  0.07267782  0.02886328     0.07970
H3678       H  0.91091202  0.17729606  0.98661500     0.07950
H3679       H  0.92929688  0.14309378  0.98322092     0.07950
H3680       H  0.92521672  0.16003181  0.01782250     0.04730
C3681       C  0.89696064  0.28200938  0.97363969    -0.21080
C3682       C  0.87059073  0.26899704  0.96668964    -0.07640
C3683       C  0.84720514  0.27186839  0.98609841     0.13230
C3684       C  0.84964129  0.29038681  0.00986102    -0.21130
C3685       C  0.87541079  0.30521390  0.01608108    -0.07650
C3686       C  0.89986529  0.29970459  0.99827364     0.13210
C3687       C  0.92908097  0.31210647  0.00479343    -0.24480
H3688       H  0.91544042  0.27814705  0.95976045     0.14500
H3689       H  0.83095737  0.29333002  0.02367838     0.14530
C3690       C  0.81986908  0.25469408  0.98259138    -0.24430
H3691       H  0.94587174  0.30399104  0.98970124     0.04740
H3692       H  0.93556286  0.30602833  0.02706867     0.07970
H3693       H  0.92856050  0.33573474  0.00252402     0.07970
H3694       H  0.82494475  0.23141510  0.98250748     0.07950
H3695       H  0.80907123  0.26048595  0.96222212     0.07950
H3696       H  0.80432388  0.25870028  0.00045953     0.04730
C3697       C  0.94670855  0.29182087  0.87954013    -0.21080
C3698       C  0.95548227  0.26339950  0.87507855    -0.07640
C3699       C  0.98452349  0.25764330  0.86740092     0.13230
C3700       C  0.00356641  0.28046432  0.86307513    -0.21130
C3701       C  0.99447983  0.30876898  0.86643498    -0.07650
C3702       C  0.96584745  0.31467869  0.87517954     0.13210
C3703       C  0.95483334  0.34494688  0.87833371    -0.24480
H3704       H  0.92441857  0.29628146  0.88505146     0.14500
H3705       H  0.02574049  0.27618791  0.85714817     0.14530
C3706       C  0.99605479  0.22764252  0.86470635    -0.24430
H3707       H  0.93158709  0.34541838  0.88418506     0.04740
H3708       H  0.95743872  0.35651402  0.85750217     0.07970
H3709       H  0.96674834  0.35631379  0.89564804     0.07970
H3710       H  0.98703037  0.21668730  0.84547563     0.07950
H3711       H  0.99047808  0.21578570  0.88461637     0.07950
H3712       H  0.01985971  0.22745959  0.86255437     0.04730
C3713       C  0.79140702  0.27831002  0.90907200    -0.21080
C3714       C  0.78518137  0.25247079  0.89529189    -0.07640
C3715       C  0.75889318  0.25037474  0.87990127     0.13230
C3716       C  0.73898928  0.27357510  0.88042557    -0.21130
C3717       C  0.74458595  0.29878116  0.89629994    -0.07650
C3718       C  0.77189456  0.30111991  0.91008262     0.13210
C3719       C  0.78216873  0.32800393  0.92468820    -0.24480
H3720       H  0.81241590  0.28113684  0.91865363     0.14500
H3721       H  0.71878168  0.27176877  0.86887818     0.14530
C3722       C  0.75165854  0.22381614  0.86325436    -0.24430
H3723       H  0.80368626  0.32539109  0.93484304     0.04740
H3724       H  0.76718179  0.33396697  0.94231014     0.07970
H3725       H  0.78471264  0.34506654  0.90820516     0.07970
H3726       H  0.75118755  0.20522531  0.87827706     0.07950
H3727       H  0.76806721  0.22063228  0.84605997     0.07950
H3728       H  0.73023178  0.22538763  0.85272066     0.04730
C3729       C  0.77131599  0.12087850  0.92469233    -0.21080
C3730       C  0.78014118  0.13838454  0.90182834    -0.07640
C3731       C  0.76136382  0.14225966  0.87804568     0.13230
C3732       C  0.73222561  0.13432854  0.88092101    -0.21130
C3733       C  0.72235072  0.11957122  0.90554222    -0.07650
C3734       C  0.74311908  0.11009793  0.92621803     0.13210
C3735       C  0.73603642  0.09019428  0.95110500    -0.24480
H3736       H  0.78649281  0.11598479  0.94177156     0.14500
H3737       H  0.71705723  0.14007528  0.86411352     0.14530
C3738       C  0.77186239  0.15436846  0.84966102    -0.24430
H3739       H  0.75572024  0.08328661  0.96278167     0.04740
H3740       H  0.72534327  0.07049833  0.94287118     0.07970
H3741       H  0.72210041  0.10105642  0.96721338     0.07970
H3742       H  0.78694278  0.13888998  0.83943827     0.07950
H3743       H  0.78352803  0.17480186  0.85304944     0.07950
H3744       H  0.75384888  0.15821829  0.83437886     0.04730
C3745       C  0.90452057  0.13042011  0.78899566    -0.21080
C3746       C  0.88951333  0.15541799  0.79619727    -0.07640
C3747       C  0.87738935  0.17232006  0.77390590     0.13230
C3748       C  0.88355686  0.16563601  0.74495460    -0.21130
C3749       C  0.90020102  0.14162484  0.73794296    -0.07650
C3750       C  0.90961454  0.12298518  0.76011369     0.13210
C3751       C  0.92567061  0.09564381  0.75363241    -0.24480
H3752       H  0.91259414  0.11679637  0.80602931     0.14500
H3753       H  0.87597188  0.17953859  0.72776792     0.14530
C3754       C  0.85894395  0.19794468  0.78034257    -0.24430
H3755       H  0.93011937  0.08313495  0.77358524     0.04740
H3756       H  0.94665600  0.10066105  0.74348655     0.07970
H3757       H  0.91273150  0.08189533  0.73897552     0.07970
H3758       H  0.87269185  0.21463746  0.78987221     0.07950
H3759       H  0.84119835  0.19203170  0.79540591     0.07950
H3760       H  0.84923541  0.20709472  0.76043594     0.04730
C3761       C  0.83355290  0.48140583  0.62088111    -0.21080
C3762       C  0.85826135  0.47753339  0.63760284    -0.07640
C3763       C  0.87816003  0.50045677  0.64068331     0.13230
C3764       C  0.87087245  0.52765029  0.63018330    -0.21130
C3765       C  0.84481953  0.53215974  0.61587165    -0.07650
C3766       C  0.82688013  0.50839254  0.60926842     0.13210
C3767       C  0.79987801  0.51151780  0.59149834    -0.24480
H3768       H  0.81883731  0.46361163  0.61797675     0.14500
H3769       H  0.88464819  0.54588745  0.63490269     0.14530
C3770       C  0.90570944  0.49755326  0.65750949    -0.24430
H3771       H  0.78859790  0.49071147  0.58872869     0.04740
H3772       H  0.80551628  0.51971741  0.56965027     0.07970
H3773       H  0.78465191  0.52648784  0.60206418     0.07970
H3774       H  0.91724804  0.47758385  0.65142810     0.07950
H3775       H  0.90070276  0.49789652  0.68090245     0.07950
H3776       H  0.92054960  0.51582868  0.65319584     0.04730
C3777       C  0.80488787  0.35422230  0.78081038    -0.21080
C3778       C  0.79289304  0.36268096  0.75446259    -0.07640
C3779       C  0.76468469  0.37380196  0.75363253     0.13230
C3780       C  0.74943582  0.37674786  0.77951795    -0.21130
C3781       C  0.76203567  0.37007946  0.80628164    -0.07650
C3782       C  0.79000327  0.35770478  0.80682047     0.13210
C3783       C  0.80527761  0.34937947  0.83439510    -0.24480
H3784       H  0.82711663  0.34712751  0.78127103     0.14500
H3785       H  0.72786332  0.38530207  0.77863648     0.14530
C3786       C  0.75080146  0.38490072  0.72639720    -0.24430
H3787       H  0.82737991  0.34117406  0.83019150     0.04740
H3788       H  0.79322487  0.33196936  0.84558066     0.07970
H3789       H  0.80736646  0.36835932  0.84875943     0.07970
H3790       H  0.73047547  0.37296084  0.72233033     0.07950
H3791       H  0.76475669  0.38260404  0.70715993     0.07950
H3792       H  0.74570320  0.40806316  0.72893016     0.04730
C3793       C  0.77587775  0.40667434  0.62184528    -0.21080
C3794       C  0.78295180  0.38337245  0.63933904    -0.07640
C3795       C  0.76070605  0.36409765  0.64767082     0.13230
C3796       C  0.73168987  0.37134085  0.64263013    -0.21130
C3797       C  0.72425256  0.39661997  0.62791000    -0.07650
C3798       C  0.74705321  0.41331077  0.61536437     0.13210
C3799       C  0.74187050  0.43918731  0.59639153    -0.24480
H3800       H  0.79297105  0.42097388  0.61490489     0.14500
H3801       H  0.71481460  0.35755358  0.65113578     0.14530
C3802       C  0.76677575  0.33605567  0.66256633    -0.24430
H3803       H  0.76225833  0.44763889  0.58706927     0.04740
H3804       H  0.73195147  0.45680655  0.60912296     0.07970
H3805       H  0.72788982  0.43318838  0.57790672     0.07970
H3806       H  0.75691046  0.31826529  0.65004061     0.07950
H3807       H  0.79009432  0.33162421  0.66385923     0.07950
H3808       H  0.75738316  0.33603528  0.68466525     0.04730
C3809       C  0.84989008  0.48642366  0.75273145    -0.21080
C3810       C  0.87805669  0.47830098  0.74543760    -0.07640
C3811       C  0.90170023  0.49247030  0.75789089     0.13230
C3812       C  0.89650377  0.51239831  0.77997664    -0.21130
C3813       C  0.86822780  0.51837491  0.78953927    -0.07650
C3814       C  0.84451586  0.50640957  0.77452799     0.13210
C3815       C  0.81352173  0.51307760  0.78205464    -0.24480
H3816       H  0.83188610  0.47585643  0.74222061     0.14500
H3817       H  0.91471273  0.52224362  0.79077213     0.14530
C3818       C  0.93220928  0.48541587  0.74917750    -0.24430
H3819       H  0.79817117  0.50152456  0.76778832     0.04740
H3820       H  0.80947760  0.53641865  0.77936747     0.07970
H3821       H  0.80867949  0.50645893  0.80461745     0.07970
H3822       H  0.93538149  0.49029471  0.72588344     0.07950
H3823       H  0.93665601  0.46232653  0.75297134     0.07950
H3824       H  0.94814659  0.49813699  0.76167966     0.04730
C3825       C  0.97271782  0.35138115  0.62860789    -0.21080
C3826       C  0.96738012  0.37295933  0.64870637    -0.07640
C3827       C  0.98937464  0.39283725  0.65565858     0.13230
C3828       C  0.01735194  0.38811640  0.64539780    -0.21130
C3829       C  0.02369116  0.36434021  0.62802501    -0.07650
C3830       C  0.00051071  0.34698871  0.61760465     0.13210
C3831       C  0.00445033  0.32292304  0.59606786    -0.24480
H3832       H  0.95524180  0.33718762  0.62238677     0.14500
H3833       H  0.03466029  0.40205821  0.65254979     0.14530
C3834       C  0.98403845  0.41841893  0.67474608    -0.24430
H3835       H  0.98346197  0.31393320  0.58888289     0.04740
H3836       H  0.01662013  0.30494002  0.60590433     0.07970
H3837       H  0.01581766  0.33106356  0.57652545     0.07970
H3838       H  0.98067151  0.41114865  0.69720944     0.07950
H3839       H  0.96507611  0.43067015  0.66694762     0.07950
H3840       H  0.00281459  0.43326298  0.67494937     0.04730
C3841       C  0.97486906  0.38642631  0.75572381    -0.21080
C3842       C  0.94679369  0.39650536  0.76042745    -0.07640
C3843       C  0.93890040  0.40596599  0.78829987     0.13230
C3844       C  0.95976503  0.40656677  0.81029359    -0.21130
C3845       C  0.98816386  0.39650022  0.80580338    -0.07650
C3846       C  0.99539023  0.38566904  0.77803871     0.13210
C3847       C  0.02415224  0.37230595  0.77171579    -0.24480
H3848       H  0.98038063  0.37773291  0.73469914     0.14500
H3849       H  0.95340771  0.41418103  0.83150725     0.14530
C3850       C  0.90847879  0.41509636  0.79511425    -0.24430
H3851       H  0.02592142  0.36470475  0.74901132     0.04740
H3852       H  0.02776648  0.35360219  0.78611247     0.07970
H3853       H  0.04096067  0.38864440  0.77507519     0.07970
H3854       H  0.89335101  0.39705833  0.79107478     0.07950
H3855       H  0.90245861  0.43360008  0.78144904     0.07950
H3856       H  0.90599176  0.42168469  0.81806670     0.04730
C3857       C  0.85507572  0.29397187  0.77014315    -0.21080
C3858       C  0.88266916  0.29888122  0.75822056    -0.07640
C3859       C  0.90703591  0.28634377  0.77186193     0.13230
C3860       C  0.90309525  0.27066645  0.79745631    -0.21130
C3861       C  0.87581344  0.26762498  0.81007662    -0.07650
C3862       C  0.85141783  0.27893585  0.79618987     0.13210
C3863       C  0.82159387  0.27466010  0.80854282    -0.24480
H3864       H  0.83619449  0.30221903  0.75923738     0.14500
H3865       H  0.92160580  0.26142876  0.80828802     0.14530
C3866       C  0.93735654  0.28958052  0.76031978    -0.24430
H3867       H  0.80482454  0.28464009  0.79471572     0.04740
H3868       H  0.82013418  0.28453063  0.83032533     0.07970
H3869       H  0.81685250  0.25134325  0.81033580     0.07970
H3870       H  0.94361596  0.31260281  0.75998579     0.07950
H3871       H  0.93881746  0.28035995  0.73822688     0.07950
H3872       H  0.95332877  0.27813908  0.77395802     0.04730
C3873       C  0.89511106  0.27998337  0.63102936    -0.21080
C3874       C  0.87213338  0.28208424  0.65073390    -0.07640
C3875       C  0.85833197  0.25651536  0.66038218     0.13230
C3876       C  0.86894532  0.22979435  0.65132541    -0.21130
C3877       C  0.89299710  0.22767255  0.63306458    -0.07650
C3878       C  0.90575937  0.25317335  0.62205458     0.13210
C3879       C  0.93187395  0.25250002  0.60252734    -0.24480
H3880       H  0.90567367  0.29944710  0.62362435     0.14500
H3881       H  0.85933445  0.21028223  0.65983152     0.14530
C3882       C  0.83374822  0.25679472  0.68187349    -0.24430
H3883       H  0.93936397  0.27444027  0.59672569     0.04740
H3884       H  0.92655821  0.24113832  0.58213924     0.07970
H3885       H  0.94994880  0.24142809  0.61353215     0.07970
H3886       H  0.81493732  0.26815463  0.67251140     0.07950
H3887       H  0.84063365  0.26751751  0.70215949     0.07950
H3888       H  0.82652229  0.23476345  0.68764797     0.04730
C3889       C  0.59453048  0.77750468  0.88286169    -0.21080
C3890       C  0.60589834  0.79421939  0.86015463    -0.07640
C3891       C  0.62455640  0.78133585  0.83992088     0.13230
C3892       C  0.62993755  0.75166929  0.84183384    -0.21130
C3893       C  0.61587664  0.73431477  0.86246781    -0.07650
C3894       C  0.59840154  0.74758139  0.88360777     0.13210
C3895       C  0.58325642  0.73007379  0.90648087    -0.24480
H3896       H  0.58102763  0.78769846  0.89904351     0.14500
H3897       H  0.64355354  0.74177732  0.82577686     0.14530
C3898       C  0.63875849  0.79885718  0.81643075    -0.24430
H3899       H  0.57104760  0.74386778  0.92179098     0.04740
H3900       H  0.59935587  0.71761213  0.91898865     0.07970
H3901       H  0.56773282  0.71507482  0.89630537     0.07970
H3902       H  0.65159998  0.81647284  0.82619903     0.07950
H3903       H  0.62211419  0.80818391  0.80202197     0.07950
H3904       H  0.65350365  0.78566785  0.80301724     0.04730
C3905       C  0.64245847  0.88156310  0.77457463    -0.21080
C3906       C  0.61473147  0.88503482  0.78652059    -0.07640
C3907       C  0.59057617  0.88200900  0.76748139     0.13230
C3908       C  0.59475701  0.87492185  0.73852027    -0.21130
C3909       C  0.62187699  0.87026734  0.72692400    -0.07650
C3910       C  0.64632448  0.87447536  0.74491302     0.13210
C3911       C  0.67635380  0.87055067  0.73329541    -0.24480
H3912       H  0.66105549  0.88396675  0.78848196     0.14500
H3913       H  0.57628879  0.87118259  0.72490519     0.14530
C3914       C  0.55958245  0.88420043  0.77693864    -0.24430
H3915       H  0.69290701  0.87471726  0.75008078     0.04740
H3916       H  0.68015482  0.88566256  0.71509283     0.07970
H3917       H  0.67915367  0.84825690  0.72561935     0.07970
H3918       H  0.55491139  0.90642914  0.78403913     0.07950
H3919       H  0.55498500  0.86784789  0.79362621     0.11310
H3920       H  0.54429894  0.87941535  0.75930774     0.04730
C3921       C  0.62143890  0.97951449  0.91548081    -0.21080
C3922       C  0.61801202  0.97430668  0.88589318    -0.07640
C3923       C  0.61616691  0.99815116  0.86696912     0.13230
C3924       C  0.61712015  0.02645256  0.87829153    -0.21130
C3925       C  0.61806297  0.03135233  0.90831777    -0.07650
C3926       C  0.62026577  0.00731418  0.92701531     0.13210
C3927       C  0.62097414  0.01048903  0.95939118    -0.24480
H3928       H  0.62316875  0.96154790  0.93010756     0.14500
H3929       H  0.61566023  0.04468857  0.86381329     0.14530
C3930       C  0.61314575  0.99363254  0.83492858    -0.24430
H3931       H  0.62098819  0.98939254  0.97063860     0.04740
H3932       H  0.60181215  0.02252672  0.96713647     0.07970
H3933       H  0.64101756  0.02166315  0.96548696     0.07970
H3934       H  0.59283591  0.98191373  0.83027298     0.07950
H3935       H  0.63170158  0.98089879  0.82678389     0.07950
H3936       H  0.61267046  0.01434966  0.82302879     0.04730
C3937       C  0.62871610  0.91694669  0.98156331    -0.21080
C3938       C  0.60860973  0.89706981  0.97170399    -0.07640
C3939       C  0.59305604  0.88013944  0.99179614     0.13230
C3940       C  0.59546716  0.88619895  0.02155723    -0.21130
C3941       C  0.61417909  0.90780891  0.03132132    -0.07650
C3942       C  0.63208208  0.92223219  0.01104546     0.13210
C3943       C  0.65377618  0.94448502  0.01978767    -0.24480
H3944       H  0.64116809  0.92920327  0.96596487     0.14500
H3945       H  0.58256868  0.87435185  0.03711082     0.14530
C3946       C  0.57401152  0.85595368  0.98182739    -0.24430
H3947       H  0.66791662  0.95097318  0.00145655     0.04740
H3948       H  0.66789762  0.93598887  0.03713011     0.07970
H3949       H  0.64204669  0.96392181  0.02673440     0.07970
H3950       H  0.58735112  0.83948533  0.97078153     0.07950
H3951       H  0.55779477  0.86400286  0.96636641     0.07950
H3952       H  0.56258012  0.84552758  0.00020783     0.04730
C3953       C  0.36519553  0.77594213  0.09689714    -0.21080
C3954       C  0.37168459  0.78928314  0.12357858    -0.07640
C3955       C  0.36926092  0.77274294  0.14900663     0.13230
C3956       C  0.36088228  0.74354711  0.14702201    -0.21130
C3957       C  0.35405800  0.73041668  0.12025122    -0.07650
C3958       C  0.35626393  0.74717913  0.09486852     0.13210
C3959       C  0.34957475  0.73511249  0.06537570    -0.24480
H3960       H  0.36653956  0.78835745  0.07711215     0.14500
H3961       H  0.35880983  0.73110879  0.16674004     0.14530
C3962       C  0.37583066  0.78561251  0.17806598    -0.24430
H3963       H  0.35337009  0.75112606  0.04794116     0.04740
H3964       H  0.32665332  0.72847613  0.06405566     0.07970
H3965       H  0.36366592  0.71650123  0.06092424     0.07970
H3966       H  0.36073837  0.80351674  0.18261354     0.07950
H3967       H  0.39830604  0.79386414  0.17824612     0.07950
H3968       H  0.37354591  0.76956183  0.19571019     0.04730
C3969       C  0.26532789  0.87894365  0.11976220    -0.21080
C3970       C  0.28495102  0.85832324  0.12945575    -0.07640
C3971       C  0.27577017  0.83695862  0.14892072     0.13230
C3972       C  0.24633415  0.83464915  0.15558424    -0.21130
C3973       C  0.22578562  0.85341759  0.14339767    -0.07650
C3974       C  0.23581708  0.87680309  0.12625027     0.13210
C3975       C  0.21594307  0.89915536  0.11372878    -0.24480
H3976       H  0.27301447  0.89610910  0.10584451     0.14500
H3977       H  0.23933909  0.81729239  0.16957396     0.14530
C3978       C  0.29713322  0.81736450  0.16345722    -0.24430
H3979       H  0.22808015  0.91683961  0.10305687     0.04740
H3980       H  0.20260378  0.90878644  0.13117444     0.07970
H3981       H  0.20199330  0.88935789  0.09700066     0.07970
H3982       H  0.31221547  0.83038914  0.17666160     0.07950
H3983       H  0.30979950  0.80532160  0.14716455     0.07950
H3984       H  0.28631544  0.80160317  0.17792597     0.04730
C3985       C  0.50383868  0.90353242  0.15617791    -0.21080
C3986       C  0.52473077  0.89376194  0.13628140    -0.07640
C3987       C  0.51620904  0.87345226  0.11528879     0.13230
C3988       C  0.48681563  0.86563024  0.11325737    -0.21130
C3989       C  0.46541643  0.87881144  0.13044920    -0.07650
C3990       C  0.47446432  0.89691905  0.15325992     0.13210
C3991       C  0.45336829  0.91148201  0.17324870    -0.24480
H3992       H  0.51005468  0.91865096  0.17283894     0.14500
H3993       H  0.48020764  0.85050986  0.09678204     0.14530
C3994       C  0.53772136  0.86036625  0.09473860    -0.24430
H3995       H  0.46432289  0.92481229  0.18982705     0.04740
H3996       H  0.44016777  0.89516736  0.18478636     0.07970
H3997       H  0.43936237  0.92592892  0.16048275     0.07970
H3998       H  0.55554835  0.85036699  0.10712517     0.07950
H3999       H  0.54652931  0.87708004  0.08004540     0.07950
H4000       H  0.52771495  0.84346602  0.08112718     0.04730
C4001       C  0.45319985  0.92644920  0.98966612    -0.21080
C4002       C  0.45695298  0.90770559  0.01284308    -0.07640
C4003       C  0.47872950  0.88665943  0.01175227     0.13230
C4004       C  0.49624499  0.88456958  0.98702340    -0.21130
C4005       C  0.49225468  0.90317768  0.96358711    -0.07650
C4006       C  0.47067049  0.92460993  0.96511167     0.13210
C4007       C  0.46625438  0.94608945  0.94124851    -0.24480
H4008       H  0.43614219  0.94230631  0.99059899     0.14500
H4009       H  0.51212462  0.86767896  0.98556770     0.14530
C4010       C  0.48312046  0.86630515  0.03645582    -0.24430
H4011       H  0.44805379  0.96089992  0.94588032     0.04740
H4012       H  0.46160754  0.93510574  0.92050522     0.07970
H4013       H  0.48598772  0.95928105  0.93936566     0.07970
H4014       H  0.46305210  0.85389751  0.04061359     0.07950
H4015       H  0.48876955  0.87907058  0.05580249     0.07950
H4016       H  0.50089091  0.85092365  0.03211003     0.04730
C4017       C  0.37937430  0.99184616  0.10327199    -0.21080
C4018       C  0.38411029  0.97403490  0.12708132    -0.07640
C4019       C  0.38440873  0.98652203  0.15491117     0.13230
C4020       C  0.38455493  0.01677198  0.15759202    -0.21130
C4021       C  0.38367106  0.03481039  0.13304027    -0.07650
C4022       C  0.37855436  0.02176443  0.10571054     0.13210
C4023       C  0.37221404  0.03866545  0.07863911    -0.24480
H4024       H  0.37641071  0.98246835  0.08231280     0.14500
H4025       H  0.38753010  0.02621629  0.17877745     0.14530
C4026       C  0.38566936  0.96815051  0.18162835    -0.24430
H4027       H  0.36581113  0.02457878  0.06038788     0.04740
H4028       H  0.39141572  0.05081476  0.07113307     0.07970
H4029       H  0.35376875  0.05306799  0.08303740     0.07970
H4030       H  0.40560919  0.95515425  0.18148340     0.07950
H4031       H  0.36665240  0.95365173  0.18237091     0.07950
H4032       H  0.38559453  0.98134478  0.20162269     0.04730
C4033       C  0.23870963  0.15455825  0.86711410    -0.21080
C4034       C  0.21938412  0.13142400  0.86310831    -0.07640
C4035       C  0.23074182  0.10316046  0.86474916     0.13230
C4036       C  0.26048592  0.09896687  0.86675236    -0.21130
C4037       C  0.27971980  0.12169865  0.87050137    -0.07650
C4038       C  0.26862274  0.14997795  0.87153889     0.13210
C4039       C  0.28836574  0.17532305  0.87544177    -0.24480
H4040       H  0.23056332  0.17631505  0.86595136     0.14500
H4041       H  0.26898604  0.07745976  0.86453085     0.14530
C4042       C  0.21225433  0.07687931  0.86235006    -0.24430
H4043       H  0.27636884  0.19592852  0.87467146     0.04740
H4044       H  0.30487900  0.17559513  0.85799445     0.07970
H4045       H  0.29920684  0.17390852  0.89675355     0.07970
H4046       H  0.20250893  0.07712011  0.84072668     0.07950
H4047       H  0.19545116  0.07683501  0.87950367     0.07950
H4048       H  0.22475227  0.05664939  0.86442599     0.04730
C4049       C  0.35763322  0.08519593  0.77861046    -0.21080
C4050       C  0.37371367  0.10586855  0.79317318    -0.07640
C4051       C  0.38663963  0.12827743  0.77717943     0.13230
C4052       C  0.38182580  0.12996290  0.74702257    -0.21130
C4053       C  0.36421084  0.10975959  0.73259380    -0.07650
C4054       C  0.35284535  0.08637955  0.74894804     0.13210
C4055       C  0.33405173  0.06305968  0.73641629    -0.24480
H4056       H  0.34707744  0.06860449  0.79088119     0.14500
H4057       H  0.39084639  0.14783708  0.73500008     0.14530
C4058       C  0.40539625  0.15021595  0.79183261    -0.24430
H4059       H  0.32946173  0.04554392  0.75209805     0.04740
H4060       H  0.34486143  0.05324753  0.71752780     0.07970
H4061       H  0.31298210  0.07218405  0.73029240     0.07970
H4062       H  0.42362367  0.13928258  0.80277442     0.07950
H4063       H  0.39261553  0.16226037  0.80810282     0.07950
H4064       H  0.41445660  0.16588779  0.77610969     0.04730
C4065       C  0.51369341  0.12004904  0.88041327    -0.21080
C4066       C  0.52302343  0.14028082  0.90085321    -0.07640
C4067       C  0.50225647  0.15911604  0.91336415     0.13230
C4068       C  0.47288897  0.15521586  0.90735961    -0.21130
C4069       C  0.46341304  0.13324067  0.88924696    -0.07650
C4070       C  0.48413033  0.11704936  0.87374852     0.13210
C4071       C  0.47507764  0.09671284  0.85024084    -0.24480
H4072       H  0.52941739  0.10611456  0.87023140     0.14500
H4073       H  0.45700049  0.16824829  0.91839019     0.14530
C4074       C  0.51028462  0.18185592  0.93519018    -0.24430
H4075       H  0.49387210  0.08565829  0.84033366     0.04740
H4076       H  0.46373541  0.10884771  0.83303350     0.07970
H4077       H  0.46033834  0.08024686  0.85887505     0.07970
H4078       H  0.52485882  0.19792813  0.92505810     0.07950
H4079       H  0.52096935  0.17182805  0.95410917     0.07950
H4080       H  0.49110088  0.19361067  0.94338309     0.04730
C4081       C  0.49440867  0.02871176  0.90770858    -0.21080
C4082       C  0.46802561  0.02400173  0.89403378    -0.07640
C4083       C  0.46392327  0.99894455  0.87706579     0.13230
C4084       C  0.48554070  0.97832756  0.87630959    -0.21130
C4085       C  0.51063643  0.98140849  0.89271256    -0.07650
C4086       C  0.51597554  0.00776390  0.90719316     0.13210
C4087       C  0.54386647  0.01412142  0.92245455    -0.24480
H4088       H  0.49768724  0.04837037  0.91982139     0.14500
H4089       H  0.48168154  0.95862152  0.86447764     0.14530
C4090       C  0.43625910  0.99236626  0.86120944    -0.24430
H4091       H  0.54492096  0.03671925  0.93003564     0.04740
H4092       H  0.56197201  0.01066990  0.90717819     0.07970
H4093       H  0.54629085  0.00019848  0.94175547     0.07970
H4094       H  0.43279712  0.00858129  0.84399597     0.07950
H4095       H  0.41783133  0.99211794  0.87661730     0.07950
H4096       H  0.43678663  0.97104648  0.85045112     0.04730
C4097       C  0.36036790  0.11813501  0.99990735    -0.21080
C4098       C  0.37880168  0.13112980  0.97957084    -0.07640
C4099       C  0.39855044  0.15223828  0.98906954     0.13230
C4100       C  0.40101790  0.15812078  0.01881290    -0.21130
C4101       C  0.38475448  0.14282481  0.03934831    -0.07650
C4102       C  0.36291962  0.12409819  0.02964256     0.13210
C4103       C  0.34300412  0.10985119  0.05096318    -0.24480
H4104       H  0.34501605  0.10212360  0.99267485     0.14500
H4105       H  0.41812892  0.17217197  0.02622261     0.14530
C4106       C  0.41932818  0.16613961  0.96830379    -0.24430
H4107       H  0.32789017  0.09474091  0.04024288     0.04740
H4108       H  0.33020169  0.12649559  0.06238664     0.07970
H4109       H  0.35572835  0.09789628  0.06711298     0.07970
H4110       H  0.40729852  0.17740182  0.95097270     0.07950
H4111       H  0.43327831  0.14933686  0.95869219     0.07950
H4112       H  0.43348431  0.18202806  0.97920282     0.04730
C4113       C  0.35576066  0.01155926  0.98557929    -0.21080
C4114       C  0.38347935  0.02237429  0.98040228    -0.07640
C4115       C  0.40681629  0.01206187  0.99686175     0.13230
C4116       C  0.40234677  0.98916441  0.01621533    -0.21130
C4117       C  0.37526433  0.97579975  0.01848815    -0.07650
C4118       C  0.35133013  0.98839755  0.00451875     0.13210
C4119       C  0.32123125  0.97717583  0.00893833    -0.24480
H4120       H  0.33785691  0.01975488  0.97301562     0.14500
H4121       H  0.42060722  0.97996399  0.02746592     0.14530
C4122       C  0.43668420  0.02392836  0.99250255    -0.24430
H4123       H  0.30495166  0.99105174  0.99827804     0.04740
H4124       H  0.31613432  0.97627654  0.03239823     0.07970
H4125       H  0.31932964  0.95561048  0.99940231     0.07970
H4126       H  0.43635458  0.04737577  0.99668258     0.07950
H4127       H  0.44397814  0.01995656  0.96997287     0.07950
H4128       H  0.45247932  0.01386291  0.00738287     0.04730
C4129       C  0.38307407  0.62504564  0.78663297    -0.21080
C4130       C  0.39270314  0.65244086  0.79542543    -0.07640
C4131       C  0.40394091  0.67151600  0.77430316     0.13230
C4132       C  0.40431116  0.66313817  0.74543783    -0.21130
C4133       C  0.39617861  0.63558357  0.73681162    -0.07650
C4134       C  0.38562459  0.61606050  0.75757838     0.13210
C4135       C  0.37712037  0.58607407  0.74904258    -0.24480
H4136       H  0.37469879  0.61024477  0.80270605     0.14500
H4137       H  0.41257946  0.67799230  0.72952682     0.14530
C4138       C  0.41548905  0.70095842  0.78123787    -0.24430
H4139       H  0.36891018  0.57360772  0.76783953     0.04740
H4140       H  0.39606288  0.57459921  0.73997490     0.07970
H4141       H  0.35989291  0.58696616  0.73245388     0.07970
H4142       H  0.43318675  0.69968247  0.79719470     0.07950
H4143       H  0.39774009  0.71448695  0.78909207     0.07950
H4144       H  0.42447961  0.71194900  0.76185743     0.04730
C4145       C  0.48411299  0.76162310  0.85639442    -0.21080
C4146       C  0.45909494  0.76499054  0.87340028    -0.07640
C4147       C  0.45688557  0.78979463  0.89122270     0.13230
C4148       C  0.48050332  0.80844343  0.89345766    -0.21130
C4149       C  0.50473709  0.80581573  0.87548000    -0.07650
C4150       C  0.50620549  0.78231285  0.85611778     0.13210
C4151       C  0.53055575  0.77885168  0.83477356    -0.24480
H4152       H  0.48594285  0.74321782  0.84218440     0.14500
H4153       H  0.47852611  0.82717149  0.90726411     0.14530
C4154       C  0.42965047  0.79962555  0.90613895    -0.24430
H4155       H  0.52874246  0.75852987  0.82234551     0.04740
H4156       H  0.55125688  0.77840949  0.84633401     0.07970
H4157       H  0.53058860  0.79671869  0.81892758     0.07970
H4158       H  0.43180371  0.79653620  0.92977633     0.07950
H4159       H  0.40981928  0.78942307  0.89813051     0.07950
H4160       H  0.42635470  0.82289391  0.90195527     0.04730
C4161       C  0.47505447  0.61963112  0.87627784    -0.21080
C4162       C  0.46902628  0.64689292  0.88815684    -0.07640
C4163       C  0.49329336  0.66468589  0.89472990     0.13230
C4164       C  0.52158244  0.65593391  0.88704879    -0.21130
C4165       C  0.52724327  0.62992141  0.87264810    -0.07650
C4166       C  0.50345027  0.61097962  0.86851160     0.13210
C4167       C  0.50757855  0.58147577  0.85579505    -0.24480
H4168       H  0.45721256  0.60533788  0.87164688     0.14500
H4169       H  0.53934987  0.67054537  0.89084562     0.14530
C4170       C  0.49003551  0.69346920  0.90926926    -0.24430
H4171       H  0.48741903  0.56859613  0.85680525     0.04740
H4172       H  0.52439737  0.56972840  0.86807407     0.07970
H4173       H  0.51389534  0.58304733  0.83270656     0.07970
H4174       H  0.47755733  0.69107387  0.92966141     0.07950
H4175       H  0.47914557  0.70871156  0.89457461     0.07950
H4176       H  0.51122282  0.70313374  0.91481341     0.04730
C4177       C  0.38979152  0.64591962  0.00211452    -0.21080
C4178       C  0.37886408  0.62994244  0.97862789    -0.07640
C4179       C  0.36306170  0.60465865  0.98501475     0.13230
C4180       C  0.35390567  0.59949224  0.01374373    -0.21130
C4181       C  0.36123742  0.61820955  0.03654409    -0.07650
C4182       C  0.38157617  0.64017834  0.03085624     0.13210
C4183       C  0.39507655  0.65747031  0.05482339    -0.24480
H4184       H  0.40371213  0.66418175  0.99790117     0.14500
H4185       H  0.33968998  0.58149534  0.01807387     0.14530
C4186       C  0.35572647  0.58309213  0.96197134    -0.24430
H4187       H  0.41196345  0.67230415  0.04650305     0.04740
H4188       H  0.40533672  0.64276960  0.07063740     0.07970
H4189       H  0.37876422  0.67070190  0.06601212     0.07970
H4190       H  0.37588261  0.57526689  0.95165255     0.07950
H4191       H  0.34187775  0.59282905  0.94531759     0.07950
H4192       H  0.34405711  0.56425194  0.97101700     0.04730
C4193       C  0.35970352  0.79902535  0.95394422    -0.21080
C4194       C  0.37935978  0.77645309  0.95740355    -0.07640
C4195       C  0.40061163  0.77824606  0.97908552     0.13230
C4196       C  0.40069036  0.80212315  0.99755494    -0.21130
C4197       C  0.37976706  0.82389538  0.99521988    -0.07650
C4198       C  0.35934919  0.82247995  0.97261156     0.13210
C4199       C  0.33564262  0.84414471  0.96901521    -0.24480
H4200       H  0.34338035  0.79767029  0.93727543     0.14500
H4201       H  0.41661878  0.80327041  0.01461599     0.14530
C4202       C  0.42337879  0.75546992  0.98266599    -0.24430
H4203       H  0.32166586  0.83940136  0.95013723     0.04740
H4204       H  0.34489096  0.86589184  0.96570684     0.07970
H4205       H  0.32175089  0.84351426  0.98849653     0.07970
H4206       H  0.43534856  0.75257077  0.96202834     0.07950
H4207       H  0.41323700  0.73484574  0.98915487     0.07950
H4208       H  0.43921898  0.76133275  0.99963413     0.04730
C4209       C  0.23823551  0.62357594  0.91170547    -0.21080
C4210       C  0.22114172  0.64593383  0.90074729    -0.07640
C4211       C  0.23480211  0.67055805  0.88932207     0.13230
C4212       C  0.26517806  0.67238263  0.88958073    -0.21130
C4213       C  0.28209224  0.65114692  0.90294262    -0.07650
C4214       C  0.26837313  0.62625585  0.91369215     0.13210
C4215       C  0.28535654  0.60292929  0.92814838    -0.24480
H4216       H  0.22778204  0.60483770  0.92091911     0.14500
H4217       H  0.27565918  0.69093289  0.88019890     0.14530
C4218       C  0.21726851  0.69494040  0.87724964    -0.24430
H4219       H  0.27140137  0.58479283  0.93517180     0.04740
H4220       H  0.29600683  0.61186038  0.94762674     0.07970
H4221       H  0.30175386  0.59444360  0.91285591     0.07970
H4222       H  0.20331894  0.70415831  0.89443231     0.07950
H4223       H  0.20348957  0.68695140  0.85938971     0.07950
H4224       H  0.23120662  0.71238159  0.86859979     0.04730
C4225       C  0.16221346  0.98343496  0.86436542    -0.21080
C4226       C  0.14516433  0.97242991  0.88675447    -0.07640
C4227       C  0.12442543  0.99071326  0.89934683     0.13230
C4228       C  0.12176555  0.01949198  0.88921389    -0.21130
C4229       C  0.13853942  0.03011740  0.86575223    -0.07650
C4230       C  0.15842296  0.01085699  0.85263426     0.13210
C4231       C  0.17465112  0.01747179  0.82496573    -0.24480
H4232       H  0.17774973  0.96964684  0.85447031     0.14500
H4233       H  0.10596642  0.03344187  0.89921963     0.14530
C4234       C  0.10553342  0.97997904  0.92351774    -0.24430
H4235       H  0.18896895  0.99970176  0.81805927     0.04740
H4236       H  0.18908982  0.03583577  0.82775858     0.07970
H4237       H  0.15923423  0.02168760  0.80714338     0.07970
H4238       H  0.11912693  0.97303256  0.94195874     0.07950
H4239       H  0.09254190  0.96143835  0.91590437     0.07950
H4240       H  0.09053692  0.99689281  0.93126857     0.04730
C4241       C  0.13258426  0.90253270  0.00131494    -0.21080
C4242       C  0.11813848  0.88640142  0.97990575    -0.07640
C4243       C  0.09668758  0.86692036  0.98921936     0.13230
C4244       C  0.09348719  0.86096848  0.01902905    -0.21130
C4245       C  0.11133988  0.87380190  0.04019506    -0.07650
C4246       C  0.12975471  0.89639881  0.03109945     0.13210
C4247       C  0.14758544  0.91337998  0.05221702    -0.24480
H4248       H  0.14833185  0.91842518  0.99453914     0.14500
H4249       H  0.07821911  0.84452515  0.02550633     0.14530
C4250       C  0.07849024  0.85090294  0.96785065    -0.24430
H4251       H  0.15913598  0.93140379  0.04147697     0.04740
H4252       H  0.16411561  0.89938919  0.06216514     0.07970
H4253       H  0.13342364  0.92262686  0.06922204     0.07970
H4254       H  0.09268797  0.83807770  0.95377070     0.07950
H4255       H  0.06611283  0.86634903  0.95449210     0.07950
H4256       H  0.06300185  0.83609741  0.97860892     0.04730
C4257       C  0.25048892  0.85870287  0.99593490    -0.21080
C4258       C  0.25832666  0.87478135  0.97129088    -0.07640
C4259       C  0.28181431  0.89378774  0.97314186     0.13230
C4260       C  0.29708891  0.89605280  0.99900800    -0.21130
C4261       C  0.29048468  0.87907830  0.02314648    -0.07650
C4262       C  0.26675039  0.86005825  0.02164334     0.13210
C4263       C  0.25840928  0.84147730  0.04699685    -0.24480
H4264       H  0.23184459  0.84466795  0.99486381     0.14500
H4265       H  0.31640477  0.90885096  0.99924526     0.14530
C4266       C  0.29192197  0.91065631  0.94755317    -0.24430
H4267       H  0.23891825  0.82839983  0.04232693     0.04740
H4268       H  0.25357521  0.85524489  0.06592055     0.07970
H4269       H  0.27617278  0.82653202  0.05246443     0.07970
H4270       H  0.27382208  0.92350308  0.93886459     0.07950
H4271       H  0.30020970  0.89518914  0.93141297     0.07950
H4272       H  0.30979171  0.92560233  0.95297380     0.04730
C4273       C  0.24799196  0.98694743  0.89740689    -0.21080
C4274       C  0.25658453  0.95950684  0.88822207    -0.07640
C4275       C  0.28594767  0.95231910  0.88754309     0.13230
C4276       C  0.30620811  0.97280005  0.89569962    -0.21130
C4277       C  0.29827134  0.00150745  0.90085414    -0.07650
C4278       C  0.26870548  0.00804379  0.90433058     0.13210
C4279       C  0.25913955  0.03572908  0.91801320    -0.24480
H4280       H  0.22519952  0.99166625  0.89954190     0.14500
H4281       H  0.32873145  0.96679737  0.89510596     0.14530
C4282       C  0.29614023  0.92383239  0.87573681    -0.24430
H4283       H  0.23527413  0.03700508  0.91970116     0.04740
H4284       H  0.26669795  0.05439227  0.90556314     0.07970
H4285       H  0.26821056  0.03719082  0.94014627     0.07970
H4286       H  0.28707547  0.90582163  0.88819189     0.07950
H4287       H  0.31999220  0.92181728  0.87620081     0.07950
H4288       H  0.28866821  0.92140432  0.85311388     0.04730
C4289       C  0.26567594  0.79679532  0.88379108    -0.21080
C4290       C  0.24061380  0.79105986  0.89960010    -0.07640
C4291       C  0.23908989  0.76478737  0.91512884     0.13230
C4292       C  0.26246068  0.74498317  0.91353041    -0.21130
C4293       C  0.28748337  0.75083742  0.89692862    -0.07650
C4294       C  0.28897336  0.77777283  0.88277006     0.13210
C4295       C  0.31621969  0.78827825  0.86897500    -0.24480
H4296       H  0.26788976  0.81756162  0.87367702     0.14500
H4297       H  0.26137033  0.72511080  0.92568631     0.14530
C4298       C  0.21307225  0.75756806  0.93327619    -0.24430
H4299       H  0.31541351  0.81121979  0.86330181     0.04740
H4300       H  0.32048605  0.77577365  0.84905320     0.07970
H4301       H  0.33381987  0.78687625  0.88486157     0.07970
H4302       H  0.19345473  0.75774792  0.91962708     0.07950
H4303       H  0.21061369  0.77347238  0.95095731     0.07950
H4304       H  0.21496263  0.73595003  0.94325522     0.04730
C4305       C  0.10631750  0.78168838  0.91885430    -0.21080
C4306       C  0.12998379  0.78958385  0.90202920    -0.07640
C4307       C  0.14258620  0.76900026  0.88340423     0.13230
C4308       C  0.13497415  0.73994810  0.88661004    -0.21130
C4309       C  0.11363698  0.73151204  0.90650179    -0.07650
C4310       C  0.09729549  0.75316148  0.92082217     0.13210
C4311       C  0.07126645  0.74690462  0.93958172    -0.24480
H4312       H  0.09507589  0.79784029  0.93108433     0.14500
H4313       H  0.14670440  0.72371155  0.87461528     0.14530
C4314       C  0.16439208  0.77723395  0.86074577    -0.24430
H4315       H  0.06003376  0.76687581  0.94631691     0.04740
H4316       H  0.07779544  0.73572320  0.95971459     0.07970
H4317       H  0.05549017  0.73377681  0.92733163     0.07970
H4318       H  0.18363740  0.78630445  0.87109716     0.07950
H4319       H  0.15497244  0.79329910  0.84578064     0.07950
H4320       H  0.17139186  0.75842168  0.84775952     0.04730
C4321       C  0.14499944  0.87592659  0.77992254    -0.21080
C4322       C  0.14745109  0.90064869  0.79748540    -0.07640
C4323       C  0.14404290  0.92778246  0.78416166     0.13230
C4324       C  0.14112384  0.92974086  0.75419743    -0.21130
C4325       C  0.14038779  0.90542135  0.73641940    -0.07650
C4326       C  0.14112275  0.87802055  0.74955017     0.13210
C4327       C  0.13845195  0.85120249  0.73172063    -0.24480
H4328       H  0.14674179  0.85492396  0.78985322     0.14500
H4329       H  0.13966376  0.95086060  0.74446793     0.14530
C4330       C  0.14373385  0.95516312  0.80108694    -0.24430
H4331       H  0.13958530  0.83158438  0.74534095     0.04740
H4332       H  0.15615661  0.85027385  0.71564737     0.07970
H4333       H  0.11744790  0.85112099  0.72028683     0.07970
H4334       H  0.16575891  0.95867882  0.80915321     0.07950
H4335       H  0.12793264  0.95373321  0.81913499     0.07950
H4336       H  0.13789082  0.97403593  0.78761353     0.04730
C4337       C  0.40095889  0.75526659  0.61500036    -0.21080
C4338       C  0.39662346  0.73234136  0.63462554    -0.07640
C4339       C  0.38828576  0.73920437  0.66347447     0.13230
C4340       C  0.38542655  0.76789494  0.67176683    -0.21130
C4341       C  0.38989481  0.79062605  0.65250525    -0.07650
C4342       C  0.39722762  0.78432347  0.62352525     0.13210
C4343       C  0.40218435  0.80811908  0.60208385    -0.24480
H4344       H  0.40768148  0.75046988  0.59306904     0.14500
H4345       H  0.37983851  0.77271388  0.69400535     0.14530
C4346       C  0.38391649  0.71689469  0.68672898    -0.24430
H4347       H  0.40842534  0.79962704  0.58052024     0.04740
H4348       H  0.41974609  0.82237595  0.60983568     0.07970
H4349       H  0.38213451  0.82085190  0.59954515     0.07970
H4350       H  0.40439907  0.70530269  0.69001247     0.07950
H4351       H  0.36632910  0.70191440  0.68066683     0.07950
H4352       H  0.37789119  0.72645300  0.70790958     0.04730
C4353       C  0.48132332  0.87453844  0.63521308    -0.21080
C4354       C  0.47401235  0.87808495  0.66449698    -0.07640
C4355       C  0.49648813  0.88046334  0.68509630     0.13230
C4356       C  0.52470682  0.87441672  0.67691546    -0.21130
C4357       C  0.53162402  0.86773690  0.64851142    -0.07650
C4358       C  0.51023828  0.86994602  0.62687487     0.13210
C4359       C  0.51772647  0.86663579  0.59535271    -0.24480
H4360       H  0.46442591  0.87432253  0.61908625     0.14500
H4361       H  0.54139759  0.87369237  0.69306924     0.14530
C4362       C  0.49142459  0.88990115  0.71571701    -0.24430
H4363       H  0.49830831  0.86815896  0.58144879     0.04740
H4364       H  0.52810617  0.84563170  0.59134681     0.07970
H4365       H  0.53294532  0.88391746  0.58885464     0.07970
H4366       H  0.47885786  0.87347852  0.72761293     0.07950
H4367       H  0.48058436  0.91103081  0.71567884     0.07950
H4368       H  0.51186334  0.89308544  0.72749626     0.04730
C4369       C  0.38187918  0.80881681  0.77878105    -0.21080
C4370       C  0.36115911  0.80130777  0.75799008    -0.07640
C4371       C  0.34640143  0.77484104  0.76096321     0.13230
C4372       C  0.35199981  0.75736915  0.78542875    -0.21130
C4373       C  0.37157371  0.76624507  0.80689060    -0.07650
C4374       C  0.38691082  0.79215669  0.80315035     0.13210
C4375       C  0.40894776  0.80265202  0.82471042    -0.24480
H4376       H  0.39414309  0.82850251  0.77638975     0.14500
H4377       H  0.34021115  0.73747873  0.78845627     0.14530
C4378       C  0.32408891  0.76562779  0.73934657    -0.24430
H4379       H  0.41899148  0.82316294  0.81781926     0.04740
H4380       H  0.42627061  0.78646258  0.82700413     0.07970
H4381       H  0.39875106  0.80699087  0.84595177     0.07970
H4382       H  0.33413231  0.76315675  0.71769725     0.07950
H4383       H  0.30672692  0.78197054  0.73818624     0.07950
H4384       H  0.31415690  0.74474095  0.74539086     0.04730
C4385       C  0.44971133  0.87803538  0.77910676    -0.21080
C4386       C  0.44419307  0.90506041  0.76684037    -0.07640
C4387       C  0.45877196  0.92939320  0.77759592     0.13230
C4388       C  0.47848209  0.92596121  0.80055024    -0.21130
C4389       C  0.48371535  0.89874831  0.81273438    -0.07650
C4390       C  0.46967761  0.87445670  0.80124725     0.13210
C4391       C  0.47716206  0.84440432  0.81062114    -0.24480
H4392       H  0.43917541  0.85917541  0.77031553     0.14500
H4393       H  0.48976903  0.94449806  0.80905574     0.14530
C4394       C  0.45287306  0.95879585  0.76564557    -0.24430
H4395       H  0.47205174  0.84139815  0.83387311     0.04740
H4396       H  0.50036400  0.84055263  0.80643010     0.07970
H4397       H  0.46517301  0.82790292  0.79819255     0.07970
H4398       H  0.42969692  0.96386420  0.76853633     0.07950
H4399       H  0.45844600  0.95952361  0.74230056     0.07950
H4400       H  0.46565391  0.97555577  0.77691554     0.04730
C4401       C  0.35847865  0.97944839  0.61517115    -0.21080
C4402       C  0.35018834  0.97288615  0.64385481    -0.07640
C4403       C  0.34108010  0.99566972  0.66201544     0.13230
C4404       C  0.34562418  0.02363448  0.65309143    -0.21130
C4405       C  0.35029058  0.03044634  0.62408143    -0.07650
C4406       C  0.35659685  0.00799016  0.60450329     0.13210
C4407       C  0.36237406  0.01417711  0.57311177    -0.24480
H4408       H  0.36523040  0.96224687  0.60093544     0.14500
H4409       H  0.34235705  0.04047180  0.66874222     0.14530
C4410       C  0.32463721  0.99174815  0.69004406    -0.24430
H4411       H  0.36817122  0.99434862  0.56111771     0.04740
H4412       H  0.38051143  0.02965591  0.57108776     0.07970
H4413       H  0.34285200  0.02343211  0.56293071     0.07970
H4414       H  0.31657977  0.01238467  0.69892192     0.07950
H4415       H  0.33847285  0.98235932  0.70663253     0.07950
H4416       H  0.30531353  0.97813274  0.68646735     0.04730
C4417       C  0.34939152  0.95777817  0.78084875    -0.21080
C4418       C  0.36495088  0.96499542  0.75577948    -0.07640
C4419       C  0.37812503  0.99294012  0.75445413     0.13230
C4420       C  0.37519965  0.01172818  0.77818280    -0.21130
C4421       C  0.35879825  0.00439482  0.80248702    -0.07650
C4422       C  0.34638644  0.97693307  0.80394733     0.13210
C4423       C  0.33109697  0.96713392  0.83061638    -0.24480
H4424       H  0.33958290  0.93671337  0.78271083     0.14500
H4425       H  0.38586084  0.03244344  0.77763658     0.14530
C4426       C  0.39568342  0.00487565  0.72949355    -0.24430
H4427       H  0.32329768  0.94482607  0.82809930     0.04740
H4428       H  0.31237330  0.98129140  0.83501806     0.07970
H4429       H  0.34645319  0.96770837  0.84893306     0.07970
H4430       H  0.39745004  0.99158488  0.71004083     0.07950
H4431       H  0.41795068  0.00933913  0.73699890     0.07950
H4432       H  0.38613243  0.02547300  0.72230145     0.04730
C4433       C  0.29573949  0.86978793  0.77620897    -0.21080
C4434       C  0.28166590  0.88409050  0.75369863    -0.07640
C4435       C  0.25392331  0.89552384  0.75866808     0.13230
C4436       C  0.24134906  0.89267534  0.78635996    -0.21130
C4437       C  0.25586038  0.87876656  0.80928795    -0.07650
C4438       C  0.28338372  0.86689882  0.80361837     0.13210
C4439       C  0.29963586  0.84983578  0.82557544    -0.24480
H4440       H  0.31705461  0.86101424  0.77247668     0.14500
H4441       H  0.22019525  0.90181467  0.79013419     0.14530
C4442       C  0.23731207  0.91006795  0.73486160    -0.24430
H4443       H  0.32032151  0.84131373  0.81694569     0.04740
H4444       H  0.28600312  0.83122662  0.83142012     0.07970
H4445       H  0.30491338  0.86318274  0.84469848     0.07970
H4446       H  0.23496114  0.89520983  0.71624597     0.07950
H4447       H  0.24878542  0.92977246  0.72771250     0.07950
H4448       H  0.21536813  0.91642719  0.74212096     0.04730
C4449       C  0.24226563  0.89372772  0.61168041    -0.21080
C4450       C  0.21832507  0.88766340  0.62947081    -0.07640
C4451       C  0.22140793  0.86694838  0.65175262     0.13230
C4452       C  0.24882014  0.85572527  0.65771155    -0.21130
C4453       C  0.27333538  0.86557321  0.64291810    -0.07650
C4454       C  0.26991528  0.88370433  0.61869500     0.13210
C4455       C  0.29539617  0.89323232  0.60073791    -0.24480
H4456       H  0.23994609  0.90855297  0.59376979     0.14500
H4457       H  0.25150752  0.84156931  0.67613978     0.14530
C4458       C  0.19645541  0.85747546  0.67039027    -0.24430
H4459       H  0.28856316  0.90601135  0.58166791     0.04740
H4460       H  0.30732176  0.87413762  0.59279281     0.07970
H4461       H  0.31005538  0.90692579  0.61368171     0.07970
H4462       H  0.17827804  0.85030174  0.65659113     0.07950
H4463       H  0.18951475  0.87537632  0.68456270     0.07950
H4464       H  0.20243771  0.83929780  0.68472557     0.04730
loop_ 
_geom_bond_atom_site_label_1 
_geom_bond_atom_site_label_2 
_geom_bond_distance 
_geom_bond_site_symmetry_2 
_ccdc_geom_bond_type 
O1            C9   1.266       .  A
O1          Co21   1.913       .  S
O2           C10   1.246       .  A
O2          Co22   1.941       .  S
O3           C11   1.261       .  A
O3          Co23   2.050       .  S
O4           C12   1.263       .  A
O4          Co24   1.998       .  S
O5           C11   1.245       .  A
O5          Co22   1.940       .  S
O6           C12   1.271       .  A
O6          Co21   1.991       .  S
O7           C10   1.273       .  A
O7          Co24   2.049       .  S
O8            C9   1.292       .  A
O8          Co23   2.099       .  S
C9         C4434   1.480       .  S
C10        C4386   1.480       .  S
C11        C4370   1.489       .  S
C12        C4418   1.501       .  S
O13          C26   1.264       .  A
O13         Co21   1.976       .  S
O14          C27   1.284       .  A
O14         Co22   2.032       .  S
O15          C28   1.271       .  A
O15         Co23   1.899       .  S
O16          C29   1.268       .  A
O16         Co24   1.974       .  S
O17          C29   1.275       .  A
O17         Co22   2.012       .  S
O18          C28   1.294       .  A
O18         Co21   2.087       .  S
O19          C26   1.268       .  A
O19         Co24   1.994       .  S
O20          C27   1.273       .  A
O20         Co23   1.981       .  S
Co21         O25   1.983       .  S
Co22         O25   1.968       .  S
Co23         O25   2.049       .  S
Co24         O25   2.083       .  S
C26        C4402   1.486       .  S
C27        C4341   1.490       .  S
C28        C4453   1.475       .  S
C29        C4354   1.481       .  S
O30          C38   1.288       .  A
O30         Co50   2.076       .  S
O31          C39   1.277       .  A
O31         Co51   2.029       .  S
O32          C40   1.272       .  A
O32         Co52   1.969       .  S
O33          C41   1.258       .  A
O33         Co53   2.002       .  S
O34          C40   1.279       .  A
O34         Co51   2.051       .  S
O35          C41   1.263       .  A
O35         Co50   2.008       .  S
O36          C39   1.256       .  A
O36         Co53   1.957       .  S
O37          C38   1.269       .  A
O37         Co52   1.911       .  S
C38        C4437   1.498       .  S
C39        C4306   1.474       .  S
C40        C4290   1.503       .  S
C41        C4322   1.503       .  S
O42          C55   1.263       .  A
O42         Co50   1.972       .  S
O43          C56   1.249       .  A
O43         Co51   1.955       .  S
O44          C57   1.286       .  A
O44         Co52   2.080       .  S
O45          C58   1.277       .  A
O45         Co53   2.075       .  S
O46          C58   1.243       .  A
O46         Co51   1.942       .  S
O47          C57   1.259       .  A
O47         Co50   1.907       .  S
O48          C55   1.283       .  A
O48         Co53   2.068       .  S
O49          C56   1.269       .  A
O49         Co52   2.041       .  S
Co50         O54   2.003       .  S
Co51         O54   2.024       .  S
Co52         O54   2.022       .  S
Co53         O54   2.082       .  S
C55        C4226   1.502       .  S
C56        C4258   1.482       .  S
C57        C4274   1.462       .  S
C58        C4242   1.506       .  S
O59          C67   1.256       .  A
O59         Co79   1.878       .  S
O60          C68   1.264       .  A
O60         Co80   1.979       .  S
O61          C69   1.256       .  A
O61         Co81   1.986       .  S
O62          C70   1.280       .  A
O62         Co82   2.048       .  S
O63          C69   1.259       .  A
O63         Co80   1.995       .  S
O64          C70   1.277       .  A
O64         Co79   1.998       .  S
O65          C68   1.277       .  A
O65         Co82   2.032       .  S
O66          C67   1.292       .  A
O66         Co81   2.107       .  S
C67        C4373   1.477       .  S
C68        C4213   1.489       .  S
C69        C4130   1.484       .  S
C70        C4293   1.512       .  S
O71          C84   1.251       .  A
O71         Co79   1.965       .  S
O72          C85   1.290       .  A
O72         Co80   2.078       .  S
O73          C86   1.264       .  A
O73         Co81   1.914       .  S
O74          C87   1.250       .  A
O74         Co82   1.951       .  S
O75          C87   1.274       .  A
O75         Co80   2.054       .  S
O76          C86   1.287       .  A
O76         Co79   2.095       .  S
O77          C84   1.255       .  A
O77         Co82   1.986       .  S
O78          C85   1.267       .  A
O78         Co81   1.982       .  S
Co79         O83   2.005       .  S
Co80         O83   2.069       .  S
Co81         O83   2.020       .  S
Co82         O83   2.038       .  S
C84        C4194   1.472       .  S
C85        C4162   1.531       .  S
C86        C4146   1.493       .  S
C87        C4178   1.505       .  S
O88          C96   1.253       .  A
O88        Co108   1.987       .  S
O89          C97   1.290       .  A
O89        Co109   2.020       .  S
O90          C98   1.262       .  A
O90        Co110   2.020       .  S
O91          C99   1.274       .  A
O91        Co111   1.999       .  S
O92          C98   1.264       .  A
O92        Co109   1.983       .  S
O93          C99   1.277       .  A
O93        Co108   2.005       .  S
O94          C97   1.282       .  A
O94        Co111   2.044       .  S
O95          C96   1.253       .  A
O95        Co110   1.968       .  S
C96        C4277   1.487       .  S
C97        C4098   1.485       .  S
C98        C4114   1.471       .  S
C99        C4037   1.491       .  S
O100        C113   1.251       .  A
O100       Co108   1.997       .  S
O101        C114   1.274       .  A
O101       Co109   1.924       .  S
O102        C115   1.290       .  A
O102       Co110   2.071       .  S
O103        C116   1.259       .  A
O103       Co111   2.031       .  S
O104        C116   1.248       .  A
O104       Co109   1.964       .  S
O105        C115   1.271       .  A
O105       Co108   1.923       .  S
O106        C113   1.259       .  A
O106       Co111   2.014       .  S
O107        C114   1.278       .  A
O107       Co110   2.011       .  S
Co108       O112   1.904       .  S
Co109       O112   1.922       .  S
Co110       O112   2.228       .  S
Co111       O112   2.110       .  S
C113       C4050   1.482       .  S
C114       C4082   1.464       .  S
C115       C4421   1.481       .  S
C116       C4069   1.483       .  S
O117        C125   1.252       .  A
O117       Co137   1.962       .  S
O118        C126   1.262       .  A
O118       Co138   1.967       .  S
O119        C127   1.291       .  A
O119       Co139   2.107       .  S
O120        C128   1.273       .  A
O120       Co140   2.083       .  S
O121        C127   1.265       .  A
O121       Co138   1.895       .  S
O122        C128   1.237       .  A
O122       Co137   1.935       .  S
O123        C126   1.278       .  A
O123       Co140   2.036       .  S
O124        C125   1.262       .  A
O124       Co139   2.011       .  S
C125       C4197   1.479   1_554  S
C126       C3989   1.499       .  S
C127       C4002   1.462       .  S
C128       C3954   1.503       .  S
O129        C142   1.277       .  A
O129       Co137   2.041       .  S
O130        C143   1.298       .  A
O130       Co138   2.117       .  S
O131        C144   1.272       .  A
O131       Co139   1.971       .  S
O132        C145   1.258       .  A
O132       Co140   1.986       .  S
O133        C145   1.268       .  A
O133       Co138   2.012       .  S
O134        C144   1.277       .  A
O134       Co137   2.026       .  S
O135        C142   1.257       .  A
O135       Co140   1.945       .  S
O136        C143   1.263       .  A
O136       Co139   1.885       .  S
Co137       O141   2.002       .  S
Co138       O141   1.997       .  S
Co139       O141   2.003       .  S
Co140       O141   2.088       .  S
C142       C3970   1.468       .  S
C143       C4117   1.481       .  S
C144       C4261   1.481       .  S
C145       C4018   1.488       .  S
O146        C154   1.248       .  A
O146       Co166   1.987       .  S
O147        C155   1.255       .  A
O147       Co167   1.972       .  S
O148        C156   1.298       .  A
O148       Co168   2.112       .  S
O149        C157   1.276       .  A
O149       Co169   2.095       .  S
O150        C156   1.260       .  A
O150       Co167   1.872       .  S
O151        C157   1.234       .  A
O151       Co166   1.935       .  S
O152        C155   1.276       .  A
O152       Co169   2.052       .  S
O153        C154   1.254       .  A
O153       Co168   2.008       .  S
C154       C4389   1.475       .  S
C155       C3922   1.492       .  S
C156       C4085   1.474       .  S
C157       C3906   1.509       .  S
O158        C171   1.279       .  A
O158       Co166   2.054       .  S
O159        C172   1.297       .  A
O159       Co167   2.114       .  S
O160        C173   1.273       .  A
O160       Co168   1.969       .  S
O161        C174   1.255       .  A
O161       Co169   1.984       .  S
O162        C174   1.261       .  A
O162       Co167   1.986       .  S
O163        C173   1.278       .  A
O163       Co166   2.024       .  S
O164        C171   1.252       .  A
O164       Co169   1.938       .  S
O165        C172   1.260       .  A
O165       Co168   1.880       .  S
Co166       O170   1.980       .  S
Co167       O170   1.983       .  S
Co168       O170   2.009       .  S
Co169       O170   2.094       .  S
C171       C3890   1.478       .  S
C172       C4005   1.470       .  S
C173       C4149   1.484       .  S
C174       C3938   1.469       .  S
O175        C183   1.293       .  A
O175       Co195   2.110       .  S
O176        C184   1.258       .  A
O176       Co196   2.007       .  S
O177        C185   1.262       .  A
O177       Co197   1.977       .  S
O178        C186   1.247       .  A
O178       Co198   1.941       .  S
O179        C185   1.276       .  A
O179       Co196   2.034       .  S
O180        C186   1.258       .  A
O180       Co195   2.009       .  S
O181        C184   1.247       .  A
O181       Co198   1.937       .  S
O182        C183   1.260       .  A
O182       Co197   1.895       .  S
C183       C3858   1.488       .  S
C184       C3810   1.460       .  S
C185       C3842   1.481       .  S
C186       C3778   1.451       .  S
O187        C200   1.272       .  A
O187       Co195   1.981       .  S
O188        C201   1.250       .  A
O188       Co196   1.955       .  S
O189        C202   1.301       .  A
O189       Co197   2.102       .  S
O190        C203   1.277       .  A
O190       Co198   2.028       .  S
O191        C203   1.262       .  A
O191       Co196   1.955       .  S
O192        C202   1.266       .  A
O192       Co195   1.882       .  S
O193        C200   1.277       .  A
O193       Co198   2.021       .  S
O194        C201   1.262       .  A
O194       Co197   2.008       .  S
Co195       O199   2.031       .  S
Co196       O199   2.064       .  S
Co197       O199   2.008       .  S
Co198       O199   1.999       .  S
C200       C3794   1.483       .  S
C201       C3826   1.462       .  S
C202       C3874   1.486       .  S
C203       C3762   1.469       .  S
O204        C212   1.265       .  A
O204       Co224   1.885       .  S
O205        C213   1.251       .  A
O205       Co225   1.937       .  S
O206        C214   1.260       .  A
O206       Co226   2.004       .  S
O207        C215   1.283       .  A
O207       Co227   2.053       .  S
O208        C214   1.253       .  A
O208       Co225   1.985       .  S
O209        C215   1.265       .  A
O209       Co224   1.986       .  S
O210        C213   1.278       .  A
O210       Co227   2.042       .  S
O211        C212   1.297       .  A
O211       Co226   2.099       .  S
C212       C3861   1.465       .  S
C213       C3730   1.478       .  S
C214       C3746   1.474       .  S
C215       C3714   1.499       .  S
O216        C229   1.265       .  A
O216       Co224   2.032       .  S
O217        C230   1.278       .  A
O217       Co225   2.048       .  S
O218        C231   1.258       .  A
O218       Co226   1.862       .  S
O219        C232   1.241       .  A
O219       Co227   1.937       .  S
O220        C232   1.276       .  A
O220       Co225   2.068       .  S
O221        C231   1.299       .  A
O221       Co224   2.117       .  S
O222        C229   1.247       .  A
O222       Co227   1.966       .  S
O223        C230   1.265       .  A
O223       Co226   1.977       .  S
Co224       O228   2.025       .  S
Co225       O228   2.074       .  S
Co226       O228   1.989       .  S
Co227       O228   2.015       .  S
C229       C3682   1.482       .  S
C230       C3650   1.515       .  S
C231       C3698   1.470       .  S
C232       C3666   1.493       .  S
O233        C241   1.298       .  A
O233       Co253   2.109       .  S
O234        C242   1.279       .  A
O234       Co254   2.032       .  S
O235        C243   1.259       .  A
O235       Co255   1.984       .  S
O236        C244   1.255       .  A
O236       Co256   2.031       .  S
O237        C243   1.264       .  A
O237       Co254   2.042       .  S
O238        C244   1.246       .  A
O238       Co253   1.963       .  S
O239        C242   1.260       .  A
O239       Co256   1.948       .  S
O240        C241   1.253       .  A
O240       Co255   1.853       .  S
C241       C3781   1.476       .  S
C242       C3634   1.478       .  S
C243       C3717   1.508       .  S
C244       C3554   1.494       .  S
O245        C258   1.270       .  A
O245       Co253   2.016       .  S
O246        C259   1.256       .  A
O246       Co254   1.964       .  S
O247        C260   1.249       .  A
O247       Co255   2.000       .  S
O248        C261   1.258       .  A
O248       Co256   2.030       .  S
O249        C261   1.248       .  A
O249       Co254   1.969       .  S
O250        C260   1.241       .  A
O250       Co253   1.975       .  S
O251        C258   1.263       .  A
O251       Co256   1.980       .  S
O252        C259   1.266       .  A
O252       Co255   2.013       .  S
Co253       O257   2.145       .  S
Co254       O257   2.100       .  S
Co255       O257   2.001       .  S
Co256       O257   2.160       .  S
C258       C3586   1.480       .  S
C259       C3618   1.475       .  S
C260       C3570   1.480       .  S
C261       C3602   1.491       .  S
O262        C270   1.302       .  A
O262       Co282   2.100       .  S
O263        C271   1.242       .  A
O263       Co283   1.982       .  S
O264        C272   1.303       .  A
O264       Co284   2.090       .  S
O265        C273   1.259       .  A
O265       Co285   1.964       .  S
O266        C272   1.277       .  A
O266       Co283   1.882       .  S
O267        C273   1.272       .  A
O267       Co282   2.006       .  S
O268        C271   1.261       .  A
O268       Co285   2.035       .  S
O269        C270   1.265   1_655  A
O269       Co284   1.890   1_655  S
C270       C3845   1.502   1_455  S
C271       C3490   1.487       .  S
C272       C3506   1.487       .  S
C273       C3458   1.466       .  S
O274        C287   1.260       .  A
O274       Co282   1.976       .  S
O275        C288   1.251       .  A
O275       Co283   1.983       .  S
O276        C289   1.287       .  A
O276       Co284   2.061       .  S
O277        C290   1.267       .  A
O277       Co285   1.957       .  S
O278        C290   1.282       .  A
O278       Co283   2.008       .  S
O279        C289   1.272       .  A
O279       Co282   1.905       .  S
O280        C287   1.272       .  A
O280       Co285   2.030       .  S
O281        C288   1.252       .  A
O281       Co284   1.980       .  S
Co282       O286   1.984       .  S
Co283       O286   1.838       .  S
Co284       O286   2.080       .  S
Co285       O286   2.089       .  S
C287       C3474   1.482       .  S
C288       C3538   1.473       .  S
C289       C3701   1.461   1_455  S
C290       C3522   1.457       .  S
O291        C299   1.280       .  A
O291       Co311   2.026       .  S
O292        C300   1.289       .  A
O292       Co312   2.031       .  S
O293        C301   1.265       .  A
O293       Co313   1.878       .  S
O294        C302   1.274       .  A
O294       Co314   1.990       .  S
O295        C301   1.309       .  A
O295       Co312   2.114       .  S
O296        C302   1.277       .  A
O296       Co311   2.020       .  S
O297        C300   1.275       .  A
O297       Co314   2.020       .  S
O298        C299   1.271       .  A
O298       Co313   1.976       .  S
C299       C3685   1.505       .  S
C300       C3442   1.501       .  S
C301       C3541   1.472       .  S
C302       C3381   1.488       .  S
O303        C316   1.243       .  A
O303       Co311   1.949       .  S
O304        C317   1.261       .  A
O304       Co312   1.917       .  S
O305        C318   1.261       .  A
O305       Co313   2.022       .  S
O306        C319   1.270       .  A
O306       Co314   2.036       .  S
O307        C319   1.256       .  A
O307       Co312   1.969       .  S
O308        C318   1.249       .  A
O308       Co311   1.955       .  S
O309        C316   1.271       .  A
O309       Co314   2.055       .  S
O310        C317   1.284       .  A
O310       Co313   2.092       .  S
Co311       O315   1.995       .  S
Co312       O315   2.002       .  S
Co313       O315   2.034       .  S
Co314       O315   2.082       .  S
C316       C3394   1.503       .  S
C317       C3426   1.482       .  S
C318       C3621   1.470   1_554  S
C319       C3410   1.494       .  S
O320        C328   1.243       .  A
O320       Co340   1.977       .  S
O321        C329   1.269       .  A
O321       Co341   2.006       .  S
O322        C330   1.251       .  A
O322       Co342   1.986       .  S
O323        C331   1.256       .  A
O323       Co343   1.977       .  S
O324        C330   1.245       .  A
O324       Co341   1.957       .  S
O325        C331   1.268       .  A
O325       Co340   2.000       .  S
O326        C329   1.253       .  A
O326       Co343   1.956       .  S
O327        C328   1.248       .  A
O327       Co342   1.987       .  S
C328       C3573   1.486       .  S
C329       C3362   1.464       .  S
C330       C3429   1.469       .  S
C331       C3314   1.488       .  S
O332        C345   1.246       .  A
O332       Co340   1.998       .  S
O333        C346   1.264       .  A
O333       Co341   1.892       .  S
O334        C347   1.298       .  A
O334       Co342   2.059       .  S
O335        C348   1.272       .  A
O335       Co343   2.061       .  S
O336        C348   1.245       .  A
O336       Co341   1.971       .  S
O337        C347   1.271       .  A
O337       Co340   1.891       .  S
O338        C345   1.266       .  A
O338       Co343   2.054       .  S
O339        C346   1.298       .  A
O339       Co342   2.075       .  S
Co340       O344   1.901       .  S
Co341       O344   1.944       .  S
Co342       O344   2.258       .  S
Co343       O344   2.150       .  S
C345       C3330   1.505       .  S
C346       C3509   1.486       .  S
C347       C3813   1.475       .  S
C348       C3346   1.511       .  S
O349        C357   1.274       .  A
O349       Co369   1.891       .  S
O350        C358   1.249       .  A
O350       Co370   1.971       .  S
O351        C359   1.261       .  A
O351       Co371   1.982       .  S
O352        C360   1.271       .  A
O352       Co372   1.873       .  S
O353        C359   1.261       .  A
O353       Co370   1.988       .  S
O354        C360   1.303       .  A
O354       Co369   2.118       .  S
O355        C358   1.249       .  A
O355       Co372   2.000       .  S
O356        C357   1.288       .  A
O356       Co371   2.043       .  S
C357       C3285   1.445       .  S
C358       C3234   1.483       .  S
C359       C3250   1.489       .  S
C360       C3218   1.484       .  S
O361        C374   1.260       .  A
O361       Co369   1.988       .  S
O362        C375   1.263       .  A
O362       Co370   1.967       .  S
O363        C376   1.269       .  A
O363       Co371   1.914       .  S
O364        C377   1.278       .  A
O364       Co372   1.992       .  S
O365        C377   1.275       .  A
O365       Co370   1.967       .  S
O366        C376   1.292       .  A
O366       Co369   2.070       .  S
O367        C374   1.255       .  A
O367       Co372   1.977       .  S
O368        C375   1.265       .  A
O368       Co371   1.987       .  S
Co369       O373   2.075       .  S
Co370       O373   2.056       .  S
Co371       O373   2.012       .  S
Co372       O373   1.896       .  S
C374       C3186   1.478       .  S
C375       C3266   1.470       .  S
C376       C3298   1.481       .  S
C377       C3202   1.464       .  S
O378        C386   1.258       .  A
O378       Co398   1.875       .  S
O379        C387   1.239       .  A
O379       Co399   1.945       .  S
O380        C388   1.264       .  A
O380       Co400   2.021       .  S
O381        C389   1.282       .  A
O381       Co401   2.055       .  S
O382        C388   1.251       .  A
O382       Co399   1.956       .  S
O383        C389   1.274       .  A
O383       Co398   2.001       .  S
O384        C387   1.270       .  A
O384       Co401   2.078       .  S
O385        C386   1.289       .  A
O385       Co400   2.099       .  S
C386       C3154   1.455       .  S
C387       C3122   1.502       .  S
C388       C3106   1.477       .  S
C389       C3138   1.532       .  S
O390        C403   1.253       .  A
O390       Co398   1.973       .  S
O391        C404   1.280       .  A
O391       Co399   2.054       .  S
O392        C405   1.268       .  A
O392       Co400   1.896       .  S
O393        C406   1.250       .  A
O393       Co401   1.923       .  S
O394        C406   1.275       .  A
O394       Co399   2.036       .  S
O395        C405   1.296       .  A
O395       Co398   2.098       .  S
O396        C403   1.251       .  A
O396       Co401   1.975       .  S
O397        C404   1.272       .  A
O397       Co400   1.993       .  S
Co398       O402   2.004       .  S
Co399       O402   2.011       .  S
Co400       O402   2.046       .  S
Co401       O402   2.109       .  S
C403       C3173   1.468       .  S
C404       C3090   1.527       .  S
C405       C3253   1.479       .  S
C406       C3074   1.453       .  S
O407        C415   1.287       .  A
O407       Co427   2.067       .  S
O408        C416   1.280       .  A
O408       Co428   2.039       .  S
O409        C417   1.265       .  A
O409       Co429   1.993       .  S
O410        C418   1.257       .  A
O410       Co430   2.034       .  S
O411        C417   1.272       .  A
O411       Co428   2.051       .  S
O412        C418   1.242       .  A
O412       Co427   1.958       .  S
O413        C416   1.258       .  A
O413       Co430   1.950       .  S
O414        C415   1.258       .  A
O414       Co429   1.866       .  S
C415       C3282   1.459       .  S
C416       C3010   1.475       .  S
C417       C3093   1.529       .  S
C418       C3058   1.479       .  S
O419        C432   1.264       .  A
O419       Co427   2.014       .  S
O420        C433   1.251       .  A
O420       Co428   1.956       .  S
O421        C434   1.262       .  A
O421       Co429   2.049       .  S
O422        C435   1.256       .  A
O422       Co430   2.030       .  S
O423        C435   1.240       .  A
O423       Co428   1.954       .  S
O424        C434   1.245       .  A
O424       Co427   1.969       .  S
O425        C432   1.258       .  A
O425       Co430   1.987       .  S
O426        C433   1.260       .  A
O426       Co429   2.010       .  S
Co427       O431   2.132       .  S
Co428       O431   2.067       .  S
Co429       O431   2.031       .  S
Co430       O431   2.183       .  S
C432       C3026   1.485       .  S
C433       C2978   1.468       .  S
C434       C3042   1.506       .  S
C435       C2994   1.479       .  S
O436        C444   1.246       .  A
O436       Co456   1.965       .  S
O437        C445   1.293       .  A
O437       Co457   2.021       .  S
O438        C446   1.253       .  A
O438       Co458   1.984       .  S
O439        C447   1.276       .  A
O439       Co459   2.017       .  S
O440        C446   1.267       .  A
O440       Co457   1.992       .  S
O441        C447   1.274       .  A
O441       Co456   1.996       .  S
O442        C445   1.277       .  A
O442       Co459   2.018       .  S
O443        C444   1.254       .  A
O443       Co458   1.988       .  S
C444       C3237   1.482       .  S
C445       C2914   1.489       .  S
C446       C2930   1.467       .  S
C447       C2885   1.486       .  S
O448        C461   1.252       .  A
O448       Co456   2.006       .  S
O449        C462   1.271       .  A
O449       Co457   1.909       .  S
O450        C463   1.282       .  A
O450       Co458   1.999       .  S
O451        C464   1.269       .  A
O451       Co459   2.056       .  S
O452        C464   1.245       .  A
O452       Co457   1.955       .  S
O453        C463   1.277       .  A
O453       Co456   1.925       .  S
O454        C461   1.262       .  A
O454       Co459   2.019       .  S
O455        C462   1.283       .  A
O455       Co458   2.033       .  S
Co456       O460   1.905       .  S
Co457       O460   1.908       .  S
Co458       O460   2.241       .  S
Co459       O460   2.094       .  S
C461       C2898   1.507       .  S
C462       C2962   1.478       .  S
C463       C3157   1.469   1_455  S
C464       C2949   1.494       .  S
O465        C473   1.285       .  A
O465       Co485   2.048       .  S
O466        C474   1.258       .  A
O466       Co486   1.989       .  S
O467        C475   1.267       .  A
O467       Co487   1.889       .  S
O468        C476   1.267       .  A
O468       Co488   1.968       .  S
O469        C475   1.296       .  A
O469       Co486   2.107       .  S
O470        C476   1.273       .  A
O470       Co485   2.012       .  S
O471        C474   1.258       .  A
O471       Co488   1.988       .  S
O472        C473   1.268       .  A
O472       Co487   1.976       .  S
C473       C3045   1.491       .  S
C474       C2853   1.466       .  S
C475       C2869   1.480       .  S
C476       C2818   1.482       .  S
O477        C490   1.248       .  A
O477       Co485   1.946       .  S
O478        C491   1.257       .  A
O478       Co486   1.883       .  S
O479        C492   1.263       .  A
O479       Co487   2.022       .  S
O480        C493   1.281       .  A
O480       Co488   2.061       .  S
O481        C493   1.264       .  A
O481       Co486   1.968       .  S
O482        C492   1.250       .  A
O482       Co485   1.964       .  S
O483        C490   1.268       .  A
O483       Co488   2.038       .  S
O484        C491   1.286       .  A
O484       Co487   2.099       .  S
Co485       O489   1.991       .  S
Co486       O489   1.978       .  S
Co487       O489   2.016       .  S
Co488       O489   2.081       .  S
C490       C2802   1.491       .  S
C491       C2933   1.455       .  S
C492       C3221   1.469   1_545  S
C493       C2834   1.498       .  S
O494        C502   1.267       .  A
O494       Co514   1.914       .  S
O495        C503   1.220       .  A
O495       Co515   1.814       .  S
O496        C504   1.265       .  A
O496       Co516   2.004       .  S
O497        C505   1.265       .  A
O497       Co517   2.020       .  S
O498        C504   1.256       .  A
O498       Co515   1.959       .  S
O499        C505   1.255       .  A
O499       Co514   1.986       .  S
O500        C503   1.233       .  A
O500       Co517   2.093       .  S
O501        C502   1.286       .  A
O501       Co516   2.065       .  S
C502       C3109   1.465       .  S
C503       C2770   1.476       .  S
C504       C2965   1.468       .  S
C505       C2738   1.495       .  S
O506        C519   1.272       .  A
O506       Co514   2.013       .  S
O507        C520   1.263       .  A
O507       Co515   1.988       .  S
O508        C521   1.263       .  A
O508       Co516   1.879       .  S
O509        C522   1.279       .  A
O509       Co517   2.047       .  S
O510        C522   1.259       .  A
O510       Co515   1.947       .  S
O511        C521   1.297       .  A
O511       Co514   2.084       .  S
O512        C519   1.260       .  A
O512       Co517   1.970       .  S
O513        C520   1.266       .  A
O513       Co516   2.018       .  S
Co514       O518   2.008       .  S
Co515       O518   2.031       .  S
Co516       O518   2.034       .  S
Co517       O518   2.209       .  S
C519       C2754   1.471       .  S
C520       C2866   1.496       .  S
C521       C2981   1.480       .  S
C522       C2786   1.466       .  S
O523        C531   1.251       .  A
O523       Co543   2.007       .  S
O524        C532   1.258       .  A
O524       Co544   1.946       .  S
O525        C533   1.269       .  A
O525       Co545   2.009       .  S
O526        C534   1.243       .  A
O526       Co546   1.971       .  S
O527        C533   1.257       .  A
O527       Co544   1.951       .  S
O528        C534   1.250       .  A
O528       Co543   2.012       .  S
O529        C532   1.265       .  A
O529       Co546   2.006       .  S
O530        C531   1.241       .  A
O530       Co545   1.976       .  S
C531       C2722   1.482       .  S
C532       C2674   1.460       .  S
C533       C2690   1.459       .  S
C534       C2706   1.482       .  S
O535        C548   1.301       .  A
O535       Co543   2.092       .  S
O536        C549   1.268       .  A
O536       Co544   2.014       .  S
O537        C550   1.279       .  A
O537       Co545   1.919       .  S
O538        C551   1.262       .  A
O538       Co546   1.978       .  S
O539        C551   1.266       .  A
O539       Co544   1.998       .  S
O540        C550   1.294       .  A
O540       Co543   2.046       .  S
O541        C548   1.272       .  A
O541       Co546   1.906       .  S
O542        C549   1.266       .  A
O542       Co545   2.002       .  S
Co543       O547   2.232       .  S
Co544       O547   2.063       .  S
Co545       O547   1.967       .  S
Co546       O547   1.983       .  S
C548       C2837   1.494       .  S
C549       C2658   1.498       .  S
C550       C2917   1.495       .  S
C551       C2642   1.477       .  S
O552        C560   1.259       .  A
O552       Co572   1.980       .  S
O553        C561   1.302       .  A
O553       Co573   2.117       .  S
O554        C562   1.290       .  A
O554       Co574   2.068       .  S
O555        C563   1.263       .  A
O555       Co575   1.977       .  S
O556        C562   1.277       .  A
O556       Co573   1.929       .  S
O557        C563   1.276       .  A
O557       Co572   2.042       .  S
O558        C561   1.269       .  A
O558       Co575   1.859       .  S
O559        C560   1.263       .  A
O559       Co574   1.950       .  S
C560       C2629   1.476       .  S
C561       C2581   1.490       .  S
C562       C2610   1.504       .  S
C563       C2597   1.489       .  S
O564        C577   1.251       .  A
O564       Co572   1.961       .  S
O565        C578   1.293       .  A
O565       Co573   2.053       .  S
O566        C579   1.271       .  A
O566       Co574   2.021       .  S
O567        C580   1.266       .  A
O567       Co575   1.987       .  S
O568        C580   1.268       .  A
O568       Co573   1.997       .  S
O569        C579   1.263       .  A
O569       Co572   1.970       .  S
O570        C577   1.266       .  A
O570       Co575   2.024       .  S
O571        C578   1.281       .  A
O571       Co574   1.913       .  S
Co572       O576   2.028       .  S
Co573       O576   2.060       .  S
Co574       O576   2.011       .  S
Co575       O576   1.921       .  S
C577       C2821   1.470       .  S
C578       C2565   1.480       .  S
C579       C3029   1.509       .  S
C580       C2546   1.493       .  S
O581        C589   1.270       .  A
O581       Co601   1.969       .  S
O582        C590   1.260       .  A
O582       Co602   1.970       .  S
O583        C591   1.273       .  A
O583       Co603   2.038       .  S
O584        C592   1.292       .  A
O584       Co604   2.119       .  S
O585        C591   1.248       .  A
O585       Co602   1.941       .  S
O586        C592   1.264       .  A
O586       Co601   1.905       .  S
O587        C590   1.258       .  A
O587       Co604   2.001       .  S
O588        C589   1.267       .  A
O588       Co603   1.992       .  S
C589       C2498   1.476       .  S
C590       C2482   1.482       .  S
C591       C2517   1.474       .  S
C592       C2533   1.478       .  S
O593        C606   1.293       .  A
O593       Co601   2.081       .  S
O594        C607   1.279       .  A
O594       Co602   2.024       .  S
O595        C608   1.272       .  A
O595       Co603   2.005       .  S
O596        C609   1.279       .  A
O596       Co604   2.005       .  S
O597        C609   1.271       .  A
O597       Co602   1.999       .  S
O598        C608   1.266       .  A
O598       Co601   1.999       .  S
O599        C606   1.270       .  A
O599       Co604   1.863       .  S
O600        C607   1.266       .  A
O600       Co603   1.962       .  S
Co601       O605   1.980       .  S
Co602       O605   1.994       .  S
Co603       O605   2.056       .  S
Co604       O605   2.008       .  S
C606       C3205   1.456       .  S
C607       C3973   1.493       .  S
C608       C4245   1.512       .  S
C609       C2882   1.513       .  S
O610        C618   1.296       .  A
O610       Co630   2.043       .  S
O611        C619   1.243       .  A
O611       Co631   1.932       .  S
O612        C620   1.279       .  A
O612       Co632   2.041       .  S
O613        C621   1.255       .  A
O613       Co633   2.024       .  S
O614        C620   1.254       .  A
O614       Co631   1.923       .  S
O615        C621   1.268       .  A
O615       Co630   2.020       .  S
O616        C619   1.275       .  A
O616       Co633   2.067       .  S
O617        C618   1.275       .  A
O617       Co632   2.007       .  S
C618       C2469   1.475       .  S
C619       C2434   1.483       .  S
C620       C2485   1.482       .  S
C621       C2453   1.509       .  S
O622        C635   1.287       .  A
O622       Co630   1.966       .  S
O623        C636   1.265       .  A
O623       Co631   2.019       .  S
O624        C637   1.259       .  A
O624       Co632   1.982       .  S
O625        C638   1.278       .  A
O625       Co633   1.991       .  S
O626        C638   1.278       .  A
O626       Co631   2.021       .  S
O627        C637   1.260       .  A
O627       Co630   2.027       .  S
O628        C635   1.299       .  A
O628       Co633   1.997       .  S
O629        C636   1.254       .  A
O629       Co632   1.965       .  S
Co630       O634   2.007       .  S
Co631       O634   2.017       .  S
Co632       O634   2.031       .  S
Co633       O634   2.090       .  S
C635       C2402   1.471       .  S
C636       C2901   1.477       .  S
C637       C3141   1.509       .  S
C638       C2418   1.516       .  S
O639        C647   1.273       .  A
O639       Co659   1.887       .  S
O640        C648   1.253       .  A
O640       Co660   1.990       .  S
O641        C649   1.289       .  A
O641       Co661   2.048       .  S
O642        C650   1.255       .  A
O642       Co662   2.005       .  S
O643        C649   1.269       .  A
O643       Co660   1.914       .  S
O644        C650   1.250       .  A
O644       Co659   1.998       .  S
O645        C648   1.269       .  A
O645       Co662   2.039       .  S
O646        C647   1.285       .  A
O646       Co661   2.028       .  S
C647       C2373   1.464       .  S
C648       C2594   1.500       .  S
C649       C2386   1.472       .  S
C650       C2357   1.480       .  S
O651        C664   1.271       .  A
O651       Co659   2.008       .  S
O652        C665   1.256       .  A
O652       Co660   1.977       .  S
O653        C666   1.248       .  A
O653       Co661   1.985       .  S
O654        C667   1.258       .  A
O654       Co662   1.964       .  S
O655        C667   1.271       .  A
O655       Co660   2.017       .  S
O656        C666   1.255       .  A
O656       Co659   1.996       .  S
O657        C664   1.268       .  A
O657       Co662   1.982       .  S
O658        C665   1.248       .  A
O658       Co661   1.968       .  S
Co659       O663   1.917       .  S
Co660       O663   1.945       .  S
Co661       O663   2.257       .  S
Co662       O663   2.131       .  S
C664       C3378   1.488       .  S
C665       C3189   1.484       .  S
C666       C3669   1.500       .  S
C667       C2805   1.468       .  S
O668        C676   1.293       .  A
O668       Co688   2.119       .  S
O669        C677   1.255       .  A
O669       Co689   2.004       .  S
O670        C678   1.260       .  A
O670       Co690   1.971       .  S
O671        C679   1.248       .  A
O671       Co691   1.965       .  S
O672        C678   1.284       .  A
O672       Co689   2.060       .  S
O673        C679   1.262       .  A
O673       Co688   2.008       .  S
O674        C677   1.243       .  A
O674       Co691   1.932       .  S
O675        C676   1.258       .  A
O675       Co690   1.887       .  S
C676       C2306   1.488       .  S
C677       C2290   1.458       .  S
C678       C2322   1.511       .  S
C679       C2338   1.488       .  S
O680        C693   1.276       .  A
O680       Co688   1.995       .  S
O681        C694   1.256       .  A
O681       Co689   1.983       .  S
O682        C695   1.301       .  A
O682       Co690   2.081       .  S
O683        C696   1.280       .  A
O683       Co691   2.026       .  S
O684        C696   1.272       .  A
O684       Co689   1.977       .  S
O685        C695   1.269       .  A
O685       Co688   1.884       .  S
O686        C693   1.279       .  A
O686       Co691   2.028       .  S
O687        C694   1.264       .  A
O687       Co690   2.010       .  S
Co688       O692   2.044       .  S
Co689       O692   2.102       .  S
Co690       O692   1.991       .  S
Co691       O692   1.987       .  S
C693       C3125   1.517       .  S
C694       C3333   1.498       .  S
C695       C3765   1.469       .  S
C696       C2741   1.487       .  S
O697        C705   1.265       .  A
O697       Co717   1.994       .  S
O698        C706   1.291       .  A
O698       Co718   2.048       .  S
O699        C707   1.266       .  A
O699       Co719   2.045       .  S
O700        C708   1.299       .  A
O700       Co720   2.105       .  S
O701        C707   1.241       .  A
O701       Co718   1.939       .  S
O702        C708   1.271       .  A
O702       Co717   1.888       .  S
O703        C706   1.269       .  A
O703       Co720   1.927       .  S
O704        C705   1.266       .  A
O704       Co719   2.009       .  S
C705       C2245   1.497       .  S
C706       C2261   1.496       .  S
C707       C2277   1.469       .  S
C708       C2226   1.491       .  S
O709        C722   1.262       .  A
O709       Co717   2.002       .  S
O710        C723   1.281       .  A
O710       Co718   2.056       .  S
O711        C724   1.269       .  A
O711       Co719   1.995       .  S
O712        C725   1.263       .  A
O712       Co720   1.996       .  S
O713        C725   1.250       .  A
O713       Co718   1.950       .  S
O714        C724   1.273       .  A
O714       Co717   2.018       .  S
O715        C722   1.257       .  A
O715       Co720   1.994       .  S
O716        C723   1.264       .  A
O716       Co719   1.969       .  S
Co717       O721   1.937       .  S
Co718       O721   2.090       .  S
Co719       O721   2.123       .  S
Co720       O721   2.087       .  S
C722       C4034   1.507       .  S
C723       C3653   1.493       .  S
C724       C4229   1.513       .  S
C725       C3477   1.501       .  S
O726        C734   1.270       .  A
O726       Co746   1.990       .  S
O727        C735   1.243       .  A
O727       Co747   1.953       .  S
O728        C736   1.272       .  A
O728       Co748   2.044       .  S
O729        C737   1.298       .  A
O729       Co749   2.128       .  S
O730        C736   1.250       .  A
O730       Co747   1.936       .  S
O731        C737   1.265       .  A
O731       Co746   1.899       .  S
O732        C735   1.250       .  A
O732       Co749   2.000       .  S
O733        C734   1.276       .  A
O733       Co748   2.027       .  S
C734       C2210   1.496       .  S
C735       C2578   1.460       .  S
C736       C2354   1.478       .  S
C737       C2181   1.492       .  S
O738        C751   1.304       .  A
O738       Co746   2.138       .  S
O739        C752   1.268       .  A
O739       Co747   2.009       .  S
O740        C753   1.265       .  A
O740       Co748   1.987       .  S
O741        C754   1.271       .  A
O741       Co749   1.983       .  S
O742        C754   1.280       .  A
O742       Co747   2.041       .  S
O743        C753   1.267       .  A
O743       Co746   1.996       .  S
O744        C751   1.259       .  A
O744       Co749   1.875       .  S
O745        C752   1.272       .  A
O745       Co748   1.991       .  S
Co746       O750   2.028       .  S
Co747       O750   2.017       .  S
Co748       O750   2.072       .  S
Co749       O750   2.017       .  S
C751       C2194   1.493       .  S
C752       C3397   1.506       .  S
C753       C3605   1.489       .  S
C754       C2165   1.490       .  S
O755        C763   1.261       .  A
O755       Co775   1.998       .  S
O756        C764   1.299       .  A
O756       Co776   2.081       .  S
O757        C765   1.264       .  A
O757       Co777   1.895       .  S
O758        C766   1.253       .  A
O758       Co778   1.999       .  S
O759        C765   1.287       .  A
O759       Co776   2.042       .  S
O760        C766   1.264       .  A
O760       Co775   2.034       .  S
O761        C764   1.273       .  A
O761       Co778   1.883       .  S
O762        C763   1.259       .  A
O762       Co777   1.988       .  S
C763       C2146   1.486       .  S
C764       C2114   1.479       .  S
C765       C2677   1.464       .  S
C766       C2258   1.483       .  S
O767        C780   1.259       .  A
O767       Co775   1.965       .  S
O768        C781   1.256       .  A
O768       Co776   2.002       .  S
O769        C782   1.256       .  A
O769       Co777   1.961       .  S
O770        C783   1.251       .  A
O770       Co778   1.991       .  S
O771        C783   1.247       .  A
O771       Co776   1.966       .  S
O772        C782   1.269       .  A
O772       Co775   1.989       .  S
O773        C780   1.272       .  A
O773       Co778   2.013       .  S
O774        C781   1.245       .  A
O774       Co777   1.963       .  S
Co775       O779   2.099       .  S
Co776       O779   2.240       .  S
Co777       O779   1.938       .  S
Co778       O779   1.924       .  S
C780       C3461   1.488       .  S
C781       C2130   1.475       .  S
C782       C3829   1.481       .  S
C783       C2098   1.480       .  S
O784        C792   1.289       .  A
O784       Co804   2.061       .  S
O785        C793   1.249       .  A
O785       Co805   1.984       .  S
O786        C794   1.265       .  A
O786       Co806   1.942       .  S
O787        C795   1.262       .  A
O787       Co807   2.026       .  S
O788        C794   1.272       .  A
O788       Co805   1.981       .  S
O789        C795   1.266       .  A
O789       Co804   1.971       .  S
O790        C793   1.257       .  A
O790       Co807   2.011       .  S
O791        C792   1.265       .  A
O791       Co806   1.978       .  S
C792       C2069   1.493       .  S
C793       C2450   1.510       .  S
C794       C2085   1.433       .  S
C795       C2018   1.468       .  S
O796        C809   1.265       .  A
O796       Co804   1.883       .  S
O797        C810   1.266       .  A
O797       Co805   2.025       .  S
O798        C811   1.251       .  A
O798       Co806   1.980       .  S
O799        C812   1.291       .  A
O799       Co807   2.028       .  S
O800        C812   1.283       .  A
O800       Co805   1.932       .  S
O801        C811   1.249       .  A
O801       Co804   1.972       .  S
O802        C809   1.294       .  A
O802       Co807   2.067       .  S
O803        C810   1.248       .  A
O803       Co806   1.963       .  S
Co804       O808   1.942       .  S
Co805       O808   1.981       .  S
Co806       O808   2.082       .  S
Co807       O808   2.233       .  S
C809       C2034   1.481       .  S
C810       C3445   1.495       .  S
C811       C3525   1.476       .  S
C812       C2050   1.484       .  S
O813        C821   1.293       .  A
O813       Co833   1.988       .  S
O814        C822   1.275       .  A
O814       Co834   2.044       .  S
O815        C823   1.261       .  A
O815       Co835   1.984       .  S
O816        C824   1.249       .  A
O816       Co836   1.956       .  S
O817        C823   1.266       .  A
O817       Co834   1.998       .  S
O818        C824   1.268       .  A
O818       Co833   2.026       .  S
O819        C822   1.250       .  A
O819       Co836   1.925       .  S
O820        C821   1.286       .  A
O820       Co835   1.946       .  S
C821       C2002   1.455       .  S
C822       C1970   1.488       .  S
C823       C1954   1.489       .  S
C824       C1989   1.486       .  S
O825        C838   1.280       .  A
O825       Co833   2.021       .  S
O826        C839   1.257       .  A
O826       Co834   1.970       .  S
O827        C840   1.246       .  A
O827       Co835   2.062       .  S
O828        C841   1.258       .  A
O828       Co836   1.970       .  S
O829        C841   1.257       .  A
O829       Co834   1.969       .  S
O830        C840   1.226       .  A
O830       Co833   1.962       .  S
O831        C838   1.269       .  A
O831       Co836   1.968       .  S
O832        C839   1.276       .  A
O832       Co835   2.053       .  S
Co833       O837   1.979       .  S
Co834       O837   2.047       .  S
Co835       O837   2.122       .  S
Co836       O837   2.057       .  S
C838       C1922   1.469       .  S
C839       C1938   1.505       .  S
C840       C2197   1.500       .  S
C841       C2037   1.470       .  S
O842        C850   1.248       .  A
O842       Co862   1.996       .  S
O843        C851   1.273       .  A
O843       Co863   1.891       .  S
O844        C852   1.265       .  A
O844       Co864   2.032       .  S
O845        C853   1.297       .  A
O845       Co865   2.065       .  S
O846        C852   1.254       .  A
O846       Co863   2.005       .  S
O847        C853   1.262       .  A
O847       Co862   1.891       .  S
O848        C851   1.291       .  A
O848       Co865   2.039       .  S
O849        C850   1.266       .  A
O849       Co864   2.034       .  S
C850       C2341   1.479       .  S
C851       C1858   1.446       .  S
C852       C1906   1.492       .  S
C853       C1874   1.473       .  S
O854        C867   1.248       .  A
O854       Co862   1.986       .  S
O855        C868   1.271       .  A
O855       Co863   2.023       .  S
O856        C869   1.261       .  A
O856       Co864   1.984       .  S
O857        C870   1.253       .  A
O857       Co865   1.973       .  S
O858        C870   1.254       .  A
O858       Co863   1.981       .  S
O859        C869   1.263       .  A
O859       Co862   1.981       .  S
O860        C867   1.253       .  A
O860       Co865   1.986       .  S
O861        C868   1.260       .  A
O861       Co864   1.972       .  S
Co862       O866   1.910       .  S
Co863       O866   1.946       .  S
Co864       O866   2.107       .  S
Co865       O866   2.249       .  S
C867       C1890   1.480       .  S
C868       C3013   1.494       .  S
C869       C3077   1.485       .  S
C870       C1842   1.480       .  S
O871        C879   1.264       .  A
O871       Co891   2.014       .  S
O872        C880   1.294       .  A
O872       Co892   2.064       .  S
O873        C881   1.281       .  A
O873       Co893   1.945       .  S
O874        C882   1.249       .  A
O874       Co894   1.983       .  S
O875        C881   1.277       .  A
O875       Co892   2.003       .  S
O876        C882   1.255       .  A
O876       Co891   2.002       .  S
O877        C880   1.271       .  A
O877       Co894   1.918       .  S
O878        C879   1.255       .  A
O878       Co893   2.005       .  S
C879       C1778   1.503       .  S
C880       C1826   1.485       .  S
C881       C1794   1.487       .  S
C882       C2005   1.464       .  S
O883        C896   1.263       .  A
O883       Co891   1.980       .  S
O884        C897   1.258       .  A
O884       Co892   2.007       .  S
O885        C898   1.278       .  A
O885       Co893   2.036       .  S
O886        C899   1.257       .  A
O886       Co894   1.994       .  S
O887        C899   1.252       .  A
O887       Co892   1.963       .  S
O888        C898   1.267       .  A
O888       Co891   1.976       .  S
O889        C896   1.276       .  A
O889       Co894   2.042       .  S
O890        C897   1.244       .  A
O890       Co893   1.964       .  S
Co891       O895   2.093       .  S
Co892       O895   2.226       .  S
Co893       O895   1.982       .  S
Co894       O895   1.969       .  S
C896       C2162   1.493       .  S
C897       C1810   1.472       .  S
C898       C2549   1.507       .  S
C899       C1893   1.488       .  S
O900        C908   1.286       .  A
O900       Co920   2.076       .  S
O901        C909   1.264       .  A
O901       Co921   1.983       .  S
O902        C910   1.257       .  A
O902       Co922   1.999       .  S
O903        C911   1.286       .  A
O903       Co923   1.897       .  S
O904        C910   1.267       .  A
O904       Co921   2.025       .  S
O905        C911   1.298       .  A
O905       Co920   2.073       .  S
O906        C909   1.267       .  A
O906       Co923   1.979       .  S
O907        C908   1.260       .  A
O907       Co922   1.893       .  S
C908       C1765   1.456       .  S
C909       C2117   1.487       .  S
C910       C2229   1.491       .  S
C911       C2693   1.479       .  S
O912        C925   1.257       .  A
O912       Co920   1.996       .  S
O913        C926   1.270       .  A
O913       Co921   1.985       .  S
O914        C927   1.294       .  A
O914       Co922   2.051       .  S
O915        C928   1.288       .  A
O915       Co923   2.025       .  S
O916        C928   1.277       .  A
O916       Co921   1.978       .  S
O917        C927   1.280       .  A
O917       Co920   1.934       .  S
O918        C925   1.254       .  A
O918       Co923   1.966       .  S
O919        C926   1.268       .  A
O919       Co922   1.985       .  S
Co920       O924   2.081       .  S
Co921       O924   2.049       .  S
Co922       O924   1.940       .  S
Co923       O924   1.875       .  S
C925       C1746   1.507       .  S
C926       C4053   1.498       .  S
C927       C4405   1.483       .  S
C928       C1730   1.474       .  S
O929        C937   1.267       .  A
O929       Co949   1.908       .  S
O930        C938   1.239       .  A
O930       Co950   1.932       .  S
O931        C939   1.264       .  A
O931       Co951   2.031       .  S
O932        C940   1.271       .  A
O932       Co952   2.017       .  S
O933        C939   1.244       .  A
O933       Co950   1.947       .  S
O934        C940   1.262       .  A
O934       Co949   1.970       .  S
O935        C938   1.268       .  A
O935       Co952   2.082       .  S
O936        C937   1.293       .  A
O936       Co951   2.116       .  S
C937       C1717   1.505       .  S
C938       C2437   1.503       .  S
C939       C2021   1.492       .  S
C940       C2514   1.477       .  S
O941        C954   1.271       .  A
O941       Co949   2.037       .  S
O942        C955   1.276       .  A
O942       Co950   2.010       .  S
O943        C956   1.271       .  A
O943       Co951   1.905       .  S
O944        C957   1.251       .  A
O944       Co952   1.935       .  S
O945        C957   1.281       .  A
O945       Co950   2.044       .  S
O946        C956   1.301       .  A
O946       Co949   2.096       .  S
O947        C954   1.254       .  A
O947       Co952   1.964       .  S
O948        C955   1.275       .  A
O948       Co951   1.998       .  S
Co949       O953   2.012       .  S
Co950       O953   1.990       .  S
Co951       O953   2.049       .  S
Co952       O953   2.094       .  S
C954       C3957   1.502       .  S
C955       C1941   1.488       .  S
C956       C4181   1.499       .  S
C957       C1698   1.462       .  S
O958        C966   1.288       .  A
O958       Co978   2.025       .  S
O959        C967   1.258       .  A
O959       Co979   2.002       .  S
O960        C968   1.259       .  A
O960       Co980   1.995       .  S
O961        C969   1.272       .  A
O961       Co981   1.892       .  S
O962        C968   1.270       .  A
O962       Co979   2.042       .  S
O963        C969   1.286       .  A
O963       Co978   2.045       .  S
O964        C967   1.264       .  A
O964       Co981   1.997       .  S
O965        C966   1.276       .  A
O965       Co980   1.902       .  S
C966       C1685   1.448       .  S
C967       C2613   1.505       .  S
C968       C2178   1.487       .  S
C969       C1666   1.453       .  S
O970        C983   1.246       .  A
O970       Co978   1.950       .  S
O971        C984   1.261       .  A
O971       Co979   1.965       .  S
O972        C985   1.246       .  A
O972       Co980   1.992       .  S
O973        C986   1.277       .  A
O973       Co981   2.021       .  S
O974        C986   1.271       .  A
O974       Co979   1.973       .  S
O975        C985   1.245       .  A
O975       Co978   1.981       .  S
O976        C983   1.259       .  A
O976       Co981   2.013       .  S
O977        C984   1.267       .  A
O977       Co980   2.007       .  S
Co978       O982   2.186       .  S
Co979       O982   2.085       .  S
Co980       O982   1.977       .  S
Co981       O982   1.994       .  S
C983       C4021   1.499       .  S
C984       C1925   1.466       .  S
C985       C4101   1.481       .  S
C986       C1650   1.494       .  S
O987        C995   1.284       .  A
O987      Co1007   2.079       .  S
O988        C996   1.258       .  A
O988      Co1008   1.998       .  S
O989        C997   1.258       .  A
O989      Co1009   2.014       .  S
O990        C998   1.262       .  A
O990      Co1010   1.947       .  S
O991        C997   1.254       .  A
O991      Co1008   1.983       .  S
O992        C998   1.285       .  A
O992      Co1007   2.046       .  S
O993        C996   1.251       .  A
O993      Co1010   1.974       .  S
O994        C995   1.262       .  A
O994      Co1009   1.934       .  S
C995       C1621   1.473       .  S
C996       C1781   1.491       .  S
C997       C1637   1.485       .  S
C998       C1986   1.501       .  S
O999       C1012   1.249       .  A
O999      Co1007   2.008       .  S
O1000      C1013   1.269       .  A
O1000     Co1008   1.992       .  S
O1001      C1014   1.294       .  A
O1001     Co1009   2.073       .  S
O1002      C1015   1.265       .  A
O1002     Co1010   1.967       .  S
O1003      C1015   1.275       .  A
O1003     Co1008   2.010       .  S
O1004      C1014   1.278       .  A
O1004     Co1007   1.943       .  S
O1005      C1012   1.251       .  A
O1005     Co1010   1.990       .  S
O1006      C1013   1.266       .  A
O1006     Co1009   1.983       .  S
Co1007     O1011   2.059       .  S
Co1008     O1011   2.096       .  S
Co1009     O1011   2.025       .  S
Co1010     O1011   2.083       .  S
C1012      C1653   1.476       .  S
C1013      C1749   1.505       .  S
C1014      C2661   1.508       .  S
C1015      C2562   1.494       .  S
O1016      C1024   1.252       .  A
O1016     Co1036   1.947       .  S
O1017      C1025   1.270       .  A
O1017     Co1037   1.911       .  S
O1018      C1026   1.277       .  A
O1018     Co1038   2.036       .  S
O1019      C1027   1.260       .  A
O1019     Co1039   2.025       .  S
O1020      C1026   1.264       .  A
O1020     Co1037   1.982       .  S
O1021      C1027   1.250       .  A
O1021     Co1036   1.947       .  S
O1022      C1025   1.278       .  A
O1022     Co1039   2.052       .  S
O1023      C1024   1.269       .  A
O1023     Co1038   2.040       .  S
C1024      C1586   1.485       .  S
C1025      C2293   1.449       .  S
C1026      C1909   1.501       .  S
C1027      C1602   1.483       .  S
O1028      C1041   1.284       .  A
O1028     Co1036   2.035       .  S
O1029      C1042   1.267       .  A
O1029     Co1037   2.014       .  S
O1030      C1043   1.260       .  A
O1030     Co1038   1.955       .  S
O1031      C1044   1.267       .  A
O1031     Co1039   1.900       .  S
O1032      C1044   1.294       .  A
O1032     Co1037   2.082       .  S
O1033      C1043   1.275       .  A
O1033     Co1036   2.011       .  S
O1034      C1041   1.268       .  A
O1034     Co1039   1.962       .  S
O1035      C1042   1.254       .  A
O1035     Co1038   1.970       .  S
Co1036     O1040   1.991       .  S
Co1037     O1040   2.028       .  S
Co1038     O1040   2.069       .  S
Co1039     O1040   2.037       .  S
C1041      C3909   1.488       .  S
C1042      C2997   1.473       .  S
C1043      C4357   1.467       .  S
C1044      C2757   1.488       .  S
O1045      C1053   1.249       .  A
O1045     Co1065   1.938       .  S
O1046      C1054   1.280       .  A
O1046     Co1066   1.934       .  S
O1047      C1055   1.267       .  A
O1047     Co1067   1.994       .  S
O1048      C1056   1.270       .  A
O1048     Co1068   2.036       .  S
O1049      C1055   1.263       .  A
O1049     Co1066   1.966       .  S
O1050      C1056   1.254       .  A
O1050     Co1065   1.965       .  S
O1051      C1054   1.295       .  A
O1051     Co1068   1.989       .  S
O1052      C1053   1.268       .  A
O1052     Co1067   2.013       .  S
C1053      C1618   1.466       .  S
C1054      C1557   1.469       .  S
C1055      C1973   1.474       .  S
C1056      C1570   1.513       .  S
O1057      C1070   1.276       .  A
O1057     Co1065   1.978       .  S
O1058      C1071   1.270       .  A
O1058     Co1066   2.020       .  S
O1059      C1072   1.256       .  A
O1059     Co1067   1.958       .  S
O1060      C1073   1.232       .  A
O1060     Co1068   1.985       .  S
O1061      C1073   1.235       .  A
O1061     Co1066   1.986       .  S
O1062      C1072   1.268       .  A
O1062     Co1065   2.009       .  S
O1063      C1070   1.281       .  A
O1063     Co1068   2.023       .  S
O1064      C1071   1.264       .  A
O1064     Co1067   1.982       .  S
Co1065     O1069   2.054       .  S
Co1066     O1069   2.055       .  S
Co1067     O1069   2.070       .  S
Co1068     O1069   2.053       .  S
C1070      C2133   1.484       .  S
C1071      C2053   1.488       .  S
C1072      C2645   1.475       .  S
C1073      C2405   1.476       .  S
O1074      C1082   1.247       .  A
O1074     Co1094   1.942       .  S
O1075      C1083   1.258       .  A
O1075     Co1095   1.980       .  S
O1076      C1084   1.301       .  A
O1076     Co1096   2.137       .  S
O1077      C1085   1.266       .  A
O1077     Co1097   2.028       .  S
O1078      C1084   1.264       .  A
O1078     Co1095   1.880       .  S
O1079      C1085   1.252       .  A
O1079     Co1094   1.955       .  S
O1080      C1083   1.276       .  A
O1080     Co1097   2.059       .  S
O1081      C1082   1.252       .  A
O1081     Co1096   2.009       .  S
C1082      C1538   1.477       .  S
C1083      C2325   1.495       .  S
C1084      C1605   1.488       .  S
C1085      C1522   1.478       .  S
O1086      C1099   1.274       .  A
O1086     Co1094   2.021       .  S
O1087      C1100   1.305       .  A
O1087     Co1095   2.115       .  S
O1088      C1101   1.278       .  A
O1088     Co1096   1.993       .  S
O1089      C1102   1.255       .  A
O1089     Co1097   1.963       .  S
O1090      C1102   1.268       .  A
O1090     Co1095   2.029       .  S
O1091      C1101   1.282       .  A
O1091     Co1094   2.051       .  S
O1092      C1099   1.268       .  A
O1092     Co1097   1.978       .  S
O1093      C1100   1.262       .  A
O1093     Co1096   1.873       .  S
Co1094     O1098   2.012       .  S
Co1095     O1098   2.028       .  S
Co1096     O1098   2.035       .  S
Co1097     O1098   2.088       .  S
C1099      C3589   1.505       .  S
C1100      C3893   1.480       .  S
C1101      C4165   1.525       .  S
C1102      C3317   1.497       .  S
O1103      C1111   1.277       .  A
O1103     Co1123   2.040       .  S
O1104      C1112   1.258       .  A
O1104     Co1124   2.041       .  S
O1105      C1113   1.259       .  A
O1105     Co1125   1.855       .  S
O1106      C1114   1.252       .  A
O1106     Co1126   1.949       .  S
O1107      C1113   1.303       .  A
O1107     Co1124   2.114       .  S
O1108      C1114   1.274       .  A
O1108     Co1123   2.046       .  S
O1109      C1112   1.241       .  A
O1109     Co1126   1.946       .  S
O1110      C1111   1.260       .  A
O1110     Co1125   1.986       .  S
C1111      C1573   1.508       .  S
C1112      C1797   1.476       .  S
C1113      C1490   1.471       .  S
C1114      C1634   1.475       .  S
O1115      C1128   1.260       .  A
O1115     Co1123   1.964       .  S
O1116      C1129   1.262       .  A
O1116     Co1124   1.897       .  S
O1117      C1130   1.259       .  A
O1117     Co1125   2.016       .  S
O1118      C1131   1.280       .  A
O1118     Co1126   2.041       .  S
O1119      C1131   1.269       .  A
O1119     Co1124   1.974       .  S
O1120      C1130   1.251       .  A
O1120     Co1123   1.964       .  S
O1121      C1128   1.269       .  A
O1121     Co1126   2.003       .  S
O1122      C1129   1.302       .  A
O1122     Co1125   2.114       .  S
Co1123     O1127   2.041       .  S
Co1124     O1127   2.021       .  S
Co1125     O1127   2.030       .  S
Co1126     O1127   2.006       .  S
C1128      C1733   1.482       .  S
C1129      C1506   1.493       .  S
C1130      C2101   1.476       .  S
C1131      C1474   1.485       .  S
O1132      C1140   1.259       .  A
O1132     Co1152   1.965       .  S
O1133      C1141   1.242       .  A
O1133     Co1153   1.940       .  S
O1134      C1142   1.267       .  A
O1134     Co1154   2.025       .  S
O1135      C1143   1.292       .  A
O1135     Co1155   2.093       .  S
O1136      C1142   1.243       .  A
O1136     Co1153   1.917       .  S
O1137      C1143   1.263       .  A
O1137     Co1152   1.877       .  S
O1138      C1141   1.266       .  A
O1138     Co1155   2.061       .  S
O1139      C1140   1.276       .  A
O1139     Co1154   2.044       .  S
C1140      C1589   1.481       .  S
C1141      C1461   1.494       .  S
C1142      C1541   1.477       .  S
C1143      C1861   1.450       .  S
O1144      C1157   1.295       .  A
O1144     Co1152   2.088       .  S
O1145      C1158   1.270       .  A
O1145     Co1153   2.016       .  S
O1146      C1159   1.254       .  A
O1146     Co1154   1.965       .  S
O1147      C1160   1.272       .  A
O1147     Co1155   1.975       .  S
O1148      C1160   1.277       .  A
O1148     Co1153   2.032       .  S
O1149      C1159   1.266       .  A
O1149     Co1152   2.042       .  S
O1150      C1157   1.270       .  A
O1150     Co1155   1.894       .  S
O1151      C1158   1.261       .  A
O1151     Co1154   1.965       .  S
Co1152     O1156   2.020       .  S
Co1153     O1156   2.016       .  S
Co1154     O1156   2.043       .  S
Co1155     O1156   2.022       .  S
C1157      C1445   1.484       .  S
C1158      C4133   1.472       .  S
C1159      C4338   1.505       .  S
C1160      C1509   1.493       .  S
O1161      C1169   1.260       .  A
O1161     Co1181   1.997       .  S
O1162      C1170   1.293       .  A
O1162     Co1182   2.053       .  S
O1163      C1171   1.265       .  A
O1163     Co1183   1.897       .  S
O1164      C1172   1.258       .  A
O1164     Co1184   2.003       .  S
O1165      C1171   1.290       .  A
O1165     Co1182   2.058       .  S
O1166      C1172   1.258       .  A
O1166     Co1181   2.005       .  S
O1167      C1170   1.279       .  A
O1167     Co1184   1.933       .  S
O1168      C1169   1.259       .  A
O1168     Co1183   2.000       .  S
C1169      C2309   1.490       .  S
C1170      C1458   1.491       .  S
C1171      C1877   1.476       .  S
C1172      C1525   1.482       .  S
O1173      C1186   1.269       .  A
O1173     Co1181   1.977       .  S
O1174      C1187   1.251       .  A
O1174     Co1182   1.983       .  S
O1175      C1188   1.261       .  A
O1175     Co1183   1.978       .  S
O1176      C1189   1.255       .  A
O1176     Co1184   1.995       .  S
O1177      C1189   1.250       .  A
O1177     Co1182   1.969       .  S
O1178      C1188   1.275       .  A
O1178     Co1181   2.009       .  S
O1179      C1186   1.279       .  A
O1179     Co1184   2.035       .  S
O1180      C1187   1.246       .  A
O1180     Co1183   1.975       .  S
Co1181     O1185   2.110       .  S
Co1182     O1185   2.239       .  S
Co1183     O1185   1.938       .  S
Co1184     O1185   1.977       .  S
C1186      C3557   1.488       .  S
C1187      C1813   1.472       .  S
C1188      C3797   1.502       .  S
C1189      C1477   1.498       .  S
O1190      C1198   1.287       .  A
O1190     Co1210   2.085       .  S
O1191      C1199   1.263       .  A
O1191     Co1211   2.010       .  S
O1192      C1200   1.256       .  A
O1192     Co1212   1.962       .  S
O1193      C1201   1.241       .  A
O1193     Co1213   1.937       .  S
O1194      C1200   1.281       .  A
O1194     Co1211   2.068       .  S
O1195      C1201   1.258       .  A
O1195     Co1210   2.010       .  S
O1196      C1199   1.258       .  A
O1196     Co1213   1.983       .  S
O1197      C1198   1.265       .  A
O1197     Co1212   1.910       .  S
C1198      C1554   1.481       .  S
C1199      C1829   1.499       .  S
C1200      C1957   1.489       .  S
C1201      C1493   1.462       .  S
O1202      C1215   1.270       .  A
O1202     Co1210   1.974       .  S
O1203      C1216   1.244       .  A
O1203     Co1211   1.950       .  S
O1204      C1217   1.300       .  A
O1204     Co1212   2.095       .  S
O1205      C1218   1.276       .  A
O1205     Co1213   2.012       .  S
O1206      C1218   1.266       .  A
O1206     Co1211   1.976       .  S
O1207      C1217   1.270       .  A
O1207     Co1210   1.915       .  S
O1208      C1215   1.285       .  A
O1208     Co1213   2.058       .  S
O1209      C1216   1.264       .  A
O1209     Co1212   2.013       .  S
Co1210     O1214   2.046       .  S
Co1211     O1214   2.053       .  S
Co1212     O1214   2.033       .  S
Co1213     O1214   2.005       .  S
C1215      C1442   1.492       .  S
C1216      C1701   1.464       .  S
C1217      C2421   1.504       .  S
C1218      C1845   1.483       .  S
O1219      C1227   1.280       .  A
O1219     Co1239   2.021       .  S
O1220      C1228   1.260       .  A
O1220     Co1240   2.000       .  S
O1221      C1229   1.304       .  A
O1221     Co1241   2.111       .  S
O1222      C1230   1.278       .  A
O1222     Co1242   2.085       .  S
O1223      C1229   1.266       .  A
O1223     Co1240   1.889       .  S
O1224      C1230   1.253       .  A
O1224     Co1239   1.954       .  S
O1225      C1228   1.244       .  A
O1225     Co1242   1.949       .  S
O1226      C1227   1.267       .  A
O1226     Co1241   1.902       .  S
C1227      C1682   1.466   1_556  S
C1228      C2370   1.465   1_556  S
C1229      C1426   1.504   1_556  S
C1230      C2213   1.508   1_556  S
O1231      C1244   1.265       .  A
O1231     Co1239   2.022       .  S
O1232      C1245   1.253       .  A
O1232     Co1240   2.000       .  S
O1233      C1246   1.269       .  A
O1233     Co1241   2.024       .  S
O1234      C1247   1.271       .  A
O1234     Co1242   1.990       .  S
O1235      C1247   1.262       .  A
O1235     Co1240   1.980       .  S
O1236      C1246   1.253       .  A
O1236     Co1239   1.950       .  S
O1237      C1244   1.251       .  A
O1237     Co1242   1.958       .  S
O1238      C1245   1.256       .  A
O1238     Co1241   2.008       .  S
Co1239     O1243   2.123       .  S
Co1240     O1243   1.938       .  S
Co1241     O1243   2.104       .  S
Co1242     O1243   2.113       .  S
C1244      C3637   1.475       .  S
C1245      C3925   1.495       .  S
C1246      C4066   1.491       .  S
C1247      C3733   1.491       .  S
O1248      C1256   1.270       .  A
O1248     Co1268   1.877       .  S
O1249      C1257   1.250       .  A
O1249     Co1269   1.957       .  S
O1250      C1258   1.271       .  A
O1250     Co1270   1.943       .  S
O1251      C1259   1.268       .  A
O1251     Co1271   2.003       .  S
O1252      C1258   1.286       .  A
O1252     Co1269   2.046       .  S
O1253      C1259   1.269       .  A
O1253     Co1268   2.014       .  S
O1254      C1257   1.262       .  A
O1254     Co1271   2.016       .  S
O1255      C1256   1.296       .  A
O1255     Co1270   2.082       .  S
C1256      C1762   1.459   1_565  S
C1257      C1410   1.474   1_565  S
C1258      C2725   1.487   1_565  S
C1259      C2242   1.504   1_565  S
O1260      C1273   1.269       .  A
O1260     Co1268   1.992       .  S
O1261      C1274   1.265       .  A
O1261     Co1269   2.025       .  S
O1262      C1275   1.254       .  A
O1262     Co1270   1.976       .  S
O1263      C1276   1.271       .  A
O1263     Co1271   1.976       .  S
O1264      C1276   1.275       .  A
O1264     Co1269   2.013       .  S
O1265      C1275   1.258       .  A
O1265     Co1268   1.997       .  S
O1266      C1273   1.270       .  A
O1266     Co1271   2.002       .  S
O1267      C1274   1.251       .  A
O1267     Co1270   1.967       .  S
Co1268     O1272   1.924       .  S
Co1269     O1272   2.102       .  S
Co1270     O1272   2.054       .  S
Co1271     O1272   2.113       .  S
C1273      C4325   1.491       .  S
C1274      C2946   1.494       .  S
C1275      C4450   1.489       .  S
C1276      C2773   1.498       .  S
O1277      C1285   1.272       .  A
O1277     Co1297   1.901       .  S
O1278      C1286   1.262       .  A
O1278     Co1298   2.008       .  S
O1279      C1287   1.285       .  A
O1279     Co1299   2.032       .  S
O1280      C1288   1.262       .  A
O1280     Co1300   2.024       .  S
O1281      C1287   1.274       .  A
O1281     Co1298   1.930       .  S
O1282      C1288   1.257       .  A
O1282     Co1297   2.012       .  S
O1283      C1286   1.262       .  A
O1283     Co1300   2.004       .  S
O1284      C1285   1.287       .  A
O1284     Co1299   2.035       .  S
C1285      C2501   1.476   1_556  S
C1286      C2066   1.486   1_556  S
C1287      C1394   1.474   1_556  S
C1288      C1714   1.490   1_556  S
O1289      C1302   1.267       .  A
O1289     Co1297   1.997       .  S
O1290      C1303   1.258       .  A
O1290     Co1298   2.004       .  S
O1291      C1304   1.245       .  A
O1291     Co1299   1.965       .  S
O1292      C1305   1.264       .  A
O1292     Co1300   1.977       .  S
O1293      C1305   1.272       .  A
O1293     Co1298   2.006       .  S
O1294      C1304   1.248       .  A
O1294     Co1297   1.970       .  S
O1295      C1302   1.267       .  A
O1295     Co1300   1.985       .  S
O1296      C1303   1.253       .  A
O1296     Co1299   1.998       .  S
Co1297     O1301   1.936       .  S
Co1298     O1301   1.954       .  S
Co1299     O1301   2.257       .  S
Co1300     O1301   2.118       .  S
C1302      C4210   1.482       .  S
C1303      C3349   1.517       .  S
C1304      C4309   1.482       .  S
C1305      C3493   1.469       .  S
O1306      C1314   1.287       .  A
O1306     Co1326   2.035       .  S
O1307      C1315   1.263       .  A
O1307     Co1327   2.018       .  S
O1308      C1316   1.249       .  A
O1308     Co1328   1.994       .  S
O1309      C1317   1.276       .  A
O1309     Co1329   1.926       .  S
O1310      C1316   1.263       .  A
O1310     Co1327   2.025       .  S
O1311      C1317   1.289       .  A
O1311     Co1326   2.044       .  S
O1312      C1315   1.258       .  A
O1312     Co1329   2.004       .  S
O1313      C1314   1.268       .  A
O1313     Co1328   1.879       .  S
C1314      C2082   1.461       .  S
C1315      C2530   1.497       .  S
C1316      C1397   1.489       .  S
C1317      C2466   1.474       .  S
O1318      C1331   1.251       .  A
O1318     Co1326   1.979       .  S
O1319      C1332   1.253       .  A
O1319     Co1327   1.960       .  S
O1320      C1333   1.258       .  A
O1320     Co1328   1.985       .  S
O1321      C1334   1.279       .  A
O1321     Co1329   2.036       .  S
O1322      C1334   1.258       .  A
O1322     Co1327   1.967       .  S
O1323      C1333   1.255       .  A
O1323     Co1326   2.001       .  S
O1324      C1331   1.247       .  A
O1324     Co1329   1.961       .  S
O1325      C1332   1.268       .  A
O1325     Co1328   2.018       .  S
Co1326     O1330   2.245       .  S
Co1327     O1330   2.101       .  S
Co1328     O1330   1.947       .  S
Co1329     O1330   1.955       .  S
C1331      C3170   1.477       .  S
C1332      C3365   1.469       .  S
C1333      C3413   1.514       .  S
C1334      C3269   1.476       .  S
O1335      C1343   1.299       .  A
O1335     Co1355   2.111       .  S
O1336      C1344   1.308       .  A
O1336     Co1356   2.117       .  S
O1337      C1345   1.252       .  A
O1337     Co1357   2.019       .  S
O1338      C1346   1.304       .  A
O1338     Co1358   2.080       .  S
O1339      C1345   1.245       .  A
O1339     Co1356   1.951       .  S
O1340      C1346   1.280       .  A
O1340     Co1355   1.888       .  S
O1341      C1344   1.270       .  A
O1341     Co1358   1.848       .  S
O1342      C1343   1.264       .  A
O1342     Co1357   1.874       .  S
C1343      C2149   1.481   1_655  S
C1344      C1413   1.481       .  S
C1345      C2274   1.463   1_655  S
C1346      C2709   1.496   1_655  S
O1347      C1360   1.256       .  A
O1347     Co1355   1.984       .  S
O1348      C1361   1.261       .  A
O1348     Co1356   1.970       .  S
O1349      C1362   1.264       .  A
O1349     Co1357   1.979       .  S
O1350      C1363   1.259       .  A
O1350     Co1358   2.043       .  S
O1351      C1363   1.234       .  A
O1351     Co1356   1.935       .  S
O1352      C1362   1.263       .  A
O1352     Co1355   1.988       .  S
O1353      C1360   1.255       .  A
O1353     Co1358   1.979       .  S
O1354      C1361   1.268       .  A
O1354     Co1357   2.002       .  S
Co1355     O1359   2.022       .  S
Co1356     O1359   2.098       .  S
Co1357     O1359   1.919       .  S
Co1358     O1359   2.049       .  S
C1360      C2850   1.472       .  S
C1361      C3749   1.467       .  S
C1362      C3877   1.482       .  S
C1363      C2789   1.473       .  S
O1364      C1372   1.274       .  A
O1364     Co1384   1.905       .  S
O1365      C1373   1.246       .  A
O1365     Co1385   1.979       .  S
O1366      C1374   1.281       .  A
O1366     Co1386   2.028       .  S
O1367      C1375   1.263       .  A
O1367     Co1387   2.004       .  S
O1368      C1374   1.268       .  A
O1368     Co1385   1.907       .  S
O1369      C1375   1.261       .  A
O1369     Co1384   2.019       .  S
O1370      C1373   1.262       .  A
O1370     Co1387   2.021       .  S
O1371      C1372   1.281       .  A
O1371     Co1386   2.023       .  S
C1372      C1669   1.464   1_565  S
C1373      C2389   1.470   1_565  S
C1374      C2626   1.469       .  S
C1375      C1429   1.509   1_565  S
O1376      C1389   1.272       .  A
O1376     Co1384   2.015       .  S
O1377      C1390   1.248       .  A
O1377     Co1385   1.973       .  S
O1378      C1391   1.253       .  A
O1378     Co1386   1.973       .  S
O1379      C1392   1.265       .  A
O1379     Co1387   1.977       .  S
O1380      C1392   1.271       .  A
O1380     Co1385   2.007       .  S
O1381      C1391   1.257       .  A
O1381     Co1384   1.994       .  S
O1382      C1389   1.266       .  A
O1382     Co1387   1.982       .  S
O1383      C1390   1.250       .  A
O1383     Co1386   1.999       .  S
Co1384     O1388   1.968       .  S
Co1385     O1388   1.935       .  S
Co1386     O1388   2.242       .  S
Co1387     O1388   2.116       .  S
C1389      C3941   1.479       .  S
C1390      C3061   1.484       .  S
C1391      C3986   1.498       .  S
C1392      C3301   1.469       .  S
C1393      C1394   1.404       .  A
C1393      C1398   1.403       .  A
C1393      H1400   1.084       .  S
C1394      C1395   1.412       .  A
C1395      C1396   1.401   1_455  A
C1395      C1402   1.506   1_454  S
C1396      C1397   1.406       .  A
C1396      H1401   1.080       .  S
C1397      C1398   1.416   1_655  A
C1398      C1399   1.502       .  S
C1399      H1403   1.111       .  S
C1399      H1404   1.106       .  S
C1399      H1405   1.098       .  S
C1402      H1406   1.104   1_655  S
C1402      H1407   1.109       .  S
C1402      H1408   1.110       .  S
C1409      C1410   1.403       .  A
C1409      C1414   1.395       .  A
C1409      H1416   1.084       .  S
C1410      C1411   1.412       .  A
C1411      C1412   1.402   1_455  A
C1411      C1418   1.504   1_545  S
C1412      C1413   1.408       .  A
C1412      H1417   1.084       .  S
C1413      C1414   1.420   1_655  A
C1414      C1415   1.512       .  S
C1415      H1419   1.111       .  S
C1415      H1420   1.107       .  S
C1415      H1421   1.110   1_455  S
C1418      H1422   1.106   1_565  S
C1418      H1423   1.109       .  S
C1418      H1424   1.111   1_565  S
C1425      C1426   1.405       .  A
C1425      C1430   1.410       .  A
C1425      H1432   1.084       .  S
C1426      C1427   1.423       .  A
C1427      C1428   1.410       .  A
C1427      C1434   1.510       .  S
C1428      C1429   1.408       .  A
C1428      H1433   1.084       .  S
C1429      C1430   1.420       .  A
C1430      C1431   1.498       .  S
C1431      H1435   1.111       .  S
C1431      H1436   1.103       .  S
C1431      H1437   1.106       .  S
C1434      H1438   1.109   1_554  S
C1434      H1439   1.110       .  S
C1434      H1440   1.111       .  S
C1441      C1442   1.401       .  A
C1441      C1446   1.413       .  A
C1441      H1448   1.084       .  S
C1442      C1443   1.420       .  A
C1443      C1444   1.398       .  A
C1443      C1450   1.497       .  S
C1444      C1445   1.393       .  A
C1444      H1449   1.085       .  S
C1445      C1446   1.422       .  A
C1446      C1447   1.503       .  S
C1447      H1451   1.111       .  S
C1447      H1452   1.108       .  S
C1447      H1453   1.104       .  S
C1450      H1454   1.107       .  S
C1450      H1455   1.103       .  S
C1450      H1456   1.111       .  S
C1457      C1458   1.406       .  A
C1457      C1462   1.413       .  A
C1457      H1464   1.084       .  S
C1458      C1459   1.414       .  A
C1459      C1460   1.402       .  A
C1459      C1466   1.510       .  S
C1460      C1461   1.409       .  A
C1460      H1465   1.085       .  S
C1461      C1462   1.420       .  A
C1462      C1463   1.503       .  S
C1463      H1467   1.111       .  S
C1463      H1468   1.100       .  S
C1463      H1469   1.110       .  S
C1466      H1470   1.101       .  S
C1466      H1471   1.108       .  S
C1466      H1472   1.111       .  S
C1473      C1474   1.395       .  A
C1473      C1478   1.392       .  A
C1473      H1480   1.081       .  S
C1474      C1475   1.415       .  A
C1475      C1476   1.422       .  A
C1475      C1482   1.503       .  S
C1476      C1477   1.412       .  A
C1476      H1481   1.083       .  S
C1477      C1478   1.426       .  A
C1478      C1479   1.515       .  S
C1479      H1483   1.102       .  S
C1479      H1484   1.110       .  S
C1479      H1485   1.111       .  S
C1482      H1486   1.110       .  S
C1482      H1487   1.110       .  S
C1482      H1488   1.111       .  S
C1489      C1490   1.400       .  A
C1489      C1494   1.392       .  A
C1489      H1496   1.084       .  S
C1490      C1491   1.424       .  A
C1491      C1492   1.394       .  A
C1491      C1498   1.511       .  S
C1492      C1493   1.392       .  A
C1492      H1497   1.079       .  S
C1493      C1494   1.415       .  A
C1494      C1495   1.509       .  S
C1495      H1499   1.111       .  S
C1495      H1500   1.109       .  S
C1495      H1501   1.101       .  S
C1498      H1502   1.110       .  S
C1498      H1503   1.111       .  S
C1498      H1504   1.111       .  S
C1505      C1506   1.408       .  A
C1505      C1510   1.421       .  A
C1505      H1512   1.083       .  S
C1506      C1507   1.422       .  A
C1507      C1508   1.395       .  A
C1507      C1514   1.504       .  S
C1508      C1509   1.397       .  A
C1508      H1513   1.083       .  S
C1509      C1510   1.420       .  A
C1510      C1511   1.505       .  S
C1511      H1515   1.111       .  S
C1511      H1516   1.110       .  S
C1511      H1517   1.108       .  S
C1514      H1518   1.110       .  S
C1514      H1519   1.096       .  S
C1514      H1520   1.111       .  S
C1521      C1522   1.402       .  A
C1521      C1526   1.398       .  A
C1521      H1528   1.085       .  S
C1522      C1523   1.411       .  A
C1523      C1524   1.410       .  A
C1523      C1530   1.505       .  S
C1524      C1525   1.408       .  A
C1524      H1529   1.082       .  S
C1525      C1526   1.413       .  A
C1526      C1527   1.504       .  S
C1527      H1531   1.111       .  S
C1527      H1532   1.110       .  S
C1527      H1533   1.101       .  S
C1530      H1534   1.110       .  S
C1530      H1535   1.109       .  S
C1530      H1536   1.111       .  S
C1537      C1538   1.400       .  A
C1537      C1542   1.384       .  A
C1537      H1544   1.085       .  S
C1538      C1539   1.413       .  A
C1539      C1540   1.407       .  A
C1539      C1546   1.507       .  S
C1540      C1541   1.410       .  A
C1540      H1545   1.084       .  S
C1541      C1542   1.427       .  A
C1542      C1543   1.522       .  S
C1543      H1547   1.112       .  S
C1543      H1548   1.100       .  S
C1543      H1549   1.111       .  S
C1546      H1550   1.110       .  S
C1546      H1551   1.111       .  S
C1546      H1552   1.110       .  S
C1553      C1554   1.403       .  A
C1553      C1558   1.400       .  A
C1553      H1560   1.084       .  S
C1554      C1555   1.420       .  A
C1555      C1556   1.394       .  A
C1555      C1562   1.499       .  S
C1556      C1557   1.394       .  A
C1556      H1561   1.084       .  S
C1557      C1558   1.419       .  A
C1558      C1559   1.510       .  S
C1559      H1563   1.111       .  S
C1559      H1564   1.111       .  S
C1559      H1565   1.109       .  S
C1562      H1566   1.109       .  S
C1562      H1567   1.105       .  S
C1562      H1568   1.111       .  S
C1569      C1570   1.416       .  A
C1569      C1574   1.400       .  A
C1569      H1576   1.083       .  S
C1570      C1571   1.414       .  A
C1571      C1572   1.422       .  A
C1571      C1578   1.504       .  S
C1572      C1573   1.420       .  A
C1572      H1577   1.083       .  S
C1573      C1574   1.416       .  A
C1574      C1575   1.512       .  S
C1575      H1579   1.111       .  S
C1575      H1580   1.110       .  S
C1575      H1581   1.109       .  S
C1578      H1582   1.110       .  S
C1578      H1583   1.110       .  S
C1578      H1584   1.111       .  S
C1585      C1586   1.404       .  A
C1585      C1590   1.398       .  A
C1585      H1592   1.085       .  S
C1586      C1587   1.417       .  A
C1587      C1588   1.408       .  A
C1587      C1594   1.502       .  S
C1588      C1589   1.404       .  A
C1588      H1593   1.084       .  S
C1589      C1590   1.411       .  A
C1590      C1591   1.500       .  S
C1591      H1595   1.111       .  S
C1591      H1596   1.107       .  S
C1591      H1597   1.106       .  S
C1594      H1598   1.109       .  S
C1594      H1599   1.108       .  S
C1594      H1600   1.111       .  S
C1601      C1602   1.406       .  A
C1601      C1606   1.396       .  A
C1601      H1608   1.084       .  S
C1602      C1603   1.412       .  A
C1603      C1604   1.406       .  A
C1603      C1610   1.505       .  S
C1604      C1605   1.410       .  A
C1604      H1609   1.084       .  S
C1605      C1606   1.413       .  A
C1606      C1607   1.502       .  S
C1607      H1611   1.111       .  S
C1607      H1612   1.108       .  S
C1607      H1613   1.110       .  S
C1610      H1614   1.108       .  S
C1610      H1615   1.111       .  S
C1610      H1616   1.111       .  S
C1617      C1618   1.393       .  A
C1617      C1622   1.396       .  A
C1617      H1624   1.085       .  S
C1618      C1619   1.421       .  A
C1619      C1620   1.403       .  A
C1619      C1626   1.507       .  S
C1620      C1621   1.398       .  A
C1620      H1625   1.085       .  S
C1621      C1622   1.413       .  A
C1622      C1623   1.492       .  S
C1623      H1627   1.108       .  S
C1623      H1628   1.109       .  S
C1623      H1629   1.101       .  S
C1626      H1630   1.111       .  S
C1626      H1631   1.104       .  S
C1626      H1632   1.110       .  S
C1633      C1634   1.400       .  A
C1633      C1638   1.398       .  A
C1633      H1640   1.085       .  S
C1634      C1635   1.410       .  A
C1635      C1636   1.410       .  A
C1635      C1642   1.501       .  S
C1636      C1637   1.409       .  A
C1636      H1641   1.084       .  S
C1637      C1638   1.419       .  A
C1638      C1639   1.510       .  S
C1639      H1643   1.111       .  S
C1639      H1644   1.109       .  S
C1639      H1645   1.109       .  S
C1642      H1646   1.107       .  S
C1642      H1647   1.109       .  S
C1642      H1648   1.111       .  S
C1649      C1650   1.408       .  A
C1649      C1654   1.401       .  A
C1649      H1656   1.084       .  S
C1650      C1651   1.422       .  A
C1651      C1652   1.408       .  A
C1651      C1658   1.507       .  S
C1652      C1653   1.397       .  A
C1652      H1657   1.078       .  S
C1653      C1654   1.409       .  A
C1654      C1655   1.504       .  S
C1655      H1659   1.111       .  S
C1655      H1660   1.106       .  S
C1655      H1661   1.110       .  S
C1658      H1662   1.110       .  S
C1658      H1663   1.110       .  S
C1658      H1664   1.111       .  S
C1665      C1666   1.392       .  A
C1665      C1670   1.396       .  A
C1665      H1672   1.085       .  S
C1666      C1667   1.413       .  A
C1667      C1668   1.395       .  A
C1667      C1674   1.504       .  S
C1668      C1669   1.397       .  A
C1668      H1673   1.085   1_545  S
C1669      C1670   1.426       .  A
C1670      C1671   1.513       .  S
C1671      H1675   1.111       .  S
C1671      H1676   1.104       .  S
C1671      H1677   1.109       .  S
C1674      H1678   1.109       .  S
C1674      H1679   1.107       .  S
C1674      H1680   1.111   1_545  S
C1681      C1682   1.411       .  A
C1681      C1686   1.394       .  A
C1681      H1688   1.084       .  S
C1682      C1683   1.409       .  A
C1683      C1684   1.398       .  A
C1683      C1690   1.507   1_554  S
C1684      C1685   1.403       .  A
C1684      H1689   1.085       .  S
C1685      C1686   1.400       .  A
C1686      C1687   1.508       .  S
C1687      H1691   1.109       .  S
C1687      H1692   1.110       .  S
C1687      H1693   1.110       .  S
C1690      H1694   1.110       .  S
C1690      H1695   1.111       .  S
C1690      H1696   1.108       .  S
C1697      C1698   1.391       .  A
C1697      C1702   1.393       .  A
C1697      H1704   1.078       .  S
C1698      C1699   1.417       .  A
C1699      C1700   1.402       .  A
C1699      C1706   1.505       .  S
C1700      C1701   1.395       .  A
C1700      H1705   1.084       .  S
C1701      C1702   1.412       .  A
C1702      C1703   1.503       .  S
C1703      H1707   1.110       .  S
C1703      H1708   1.107       .  S
C1703      H1709   1.108       .  S
C1706      H1710   1.098       .  S
C1706      H1711   1.110       .  S
C1706      H1712   1.111       .  S
C1713      C1714   1.399       .  A
C1713      C1718   1.412       .  A
C1713      H1720   1.082       .  S
C1714      C1715   1.418       .  A
C1715      C1716   1.404       .  A
C1715      C1722   1.502   1_554  S
C1716      C1717   1.404       .  A
C1716      H1721   1.084       .  S
C1717      C1718   1.426       .  A
C1718      C1719   1.502       .  S
C1719      H1723   1.111       .  S
C1719      H1724   1.109       .  S
C1719      H1725   1.109       .  S
C1722      H1726   1.105       .  S
C1722      H1727   1.103       .  S
C1722      H1728   1.111       .  S
C1729      C1730   1.403       .  A
C1729      C1734   1.405       .  A
C1729      H1736   1.084       .  S
C1730      C1731   1.408       .  A
C1731      C1732   1.398       .  A
C1731      C1738   1.501       .  S
C1732      C1733   1.407       .  A
C1732      H1737   1.084       .  S
C1733      C1734   1.416       .  A
C1734      C1735   1.506       .  S
C1735      H1739   1.111       .  S
C1735      H1740   1.108       .  S
C1735      H1741   1.111       .  S
C1738      H1742   1.105       .  S
C1738      H1743   1.110       .  S
C1738      H1744   1.111       .  S
C1745      C1746   1.407       .  A
C1745      C1750   1.387       .  A
C1745      H1752   1.081       .  S
C1746      C1747   1.417       .  A
C1747      C1748   1.426       .  A
C1747      C1754   1.503       .  S
C1748      C1749   1.417       .  A
C1748      H1753   1.083       .  S
C1749      C1750   1.424       .  A
C1750      C1751   1.518       .  S
C1751      H1755   1.109       .  S
C1751      H1756   1.110       .  S
C1751      H1757   1.104       .  S
C1754      H1758   1.110       .  S
C1754      H1759   1.110       .  S
C1754      H1760   1.111       .  S
C1761      C1762   1.402       .  A
C1761      C1766   1.401       .  A
C1761      H1768   1.081       .  S
C1762      C1763   1.408   1_545  A
C1763      C1764   1.390   1_565  A
C1763      C1770   1.508       .  S
C1764      C1765   1.398       .  A
C1764      H1769   1.080       .  S
C1765      C1766   1.410       .  A
C1766      C1767   1.508       .  S
C1767      H1771   1.111       .  S
C1767      H1772   1.105       .  S
C1767      H1773   1.110       .  S
C1770      H1774   1.108       .  S
C1770      H1775   1.109       .  S
C1770      H1776   1.111       .  S
C1777      C1778   1.410       .  A
C1777      C1782   1.404       .  A
C1777      H1784   1.083       .  S
C1778      C1779   1.423       .  A
C1779      C1780   1.411       .  A
C1779      C1786   1.505       .  S
C1780      C1781   1.404       .  A
C1780      H1785   1.084       .  S
C1781      C1782   1.417       .  A
C1782      C1783   1.511       .  S
C1783      H1787   1.111       .  S
C1783      H1788   1.109       .  S
C1783      H1789   1.111       .  S
C1786      H1790   1.107       .  S
C1786      H1791   1.105       .  S
C1786      H1792   1.111       .  S
C1793      C1794   1.397       .  A
C1793      C1798   1.402       .  A
C1793      H1800   1.083       .  S
C1794      C1795   1.428       .  A
C1795      C1796   1.402       .  A
C1795      C1802   1.509       .  S
C1796      C1797   1.395       .  A
C1796      H1801   1.085       .  S
C1797      C1798   1.419       .  A
C1798      C1799   1.498       .  S
C1799      H1803   1.110       .  S
C1799      H1804   1.106       .  S
C1799      H1805   1.104       .  S
C1802      H1806   1.110       .  S
C1802      H1807   1.109       .  S
C1802      H1808   1.111       .  S
C1809      C1810   1.401       .  A
C1809      C1814   1.399       .  A
C1809      H1816   1.082       .  S
C1810      C1811   1.412       .  A
C1811      C1812   1.408       .  A
C1811      C1818   1.504       .  S
C1812      C1813   1.406       .  A
C1812      H1817   1.085       .  S
C1813      C1814   1.410       .  A
C1814      C1815   1.507       .  S
C1815      H1819   1.110       .  S
C1815      H1820   1.107       .  S
C1815      H1821   1.111       .  S
C1818      H1822   1.108       .  S
C1818      H1823   1.110       .  S
C1818      H1824   1.110       .  S
C1825      C1826   1.401       .  A
C1825      C1830   1.398       .  A
C1825      H1832   1.080       .  S
C1826      C1827   1.411       .  A
C1827      C1828   1.411       .  A
C1827      C1834   1.506       .  S
C1828      C1829   1.414       .  A
C1828      H1833   1.083       .  S
C1829      C1830   1.419       .  A
C1830      C1831   1.505       .  S
C1831      H1835   1.111       .  S
C1831      H1836   1.101       .  S
C1831      H1837   1.103       .  S
C1834      H1838   1.110       .  S
C1834      H1839   1.111       .  S
C1834      H1840   1.111       .  S
C1841      C1842   1.409       .  A
C1841      C1846   1.414       .  A
C1841      H1848   1.084       .  S
C1842      C1843   1.415       .  A
C1843      C1844   1.396       .  A
C1843      C1850   1.511       .  S
C1844      C1845   1.402       .  A
C1844      H1849   1.083       .  S
C1845      C1846   1.413       .  A
C1846      C1847   1.504       .  S
C1847      H1851   1.111       .  S
C1847      H1852   1.110       .  S
C1847      H1853   1.110       .  S
C1850      H1854   1.107       .  S
C1850      H1855   1.109       .  S
C1850      H1856   1.109       .  S
C1857      C1858   1.397       .  A
C1857      C1862   1.392       .  A
C1857      H1864   1.086       .  S
C1858      C1859   1.409       .  A
C1859      C1860   1.396       .  A
C1859      C1866   1.507       .  S
C1860      C1861   1.399       .  A
C1860      H1865   1.082       .  S
C1861      C1862   1.410       .  A
C1862      C1863   1.504       .  S
C1863      H1867   1.110       .  S
C1863      H1868   1.109       .  S
C1863      H1869   1.104       .  S
C1866      H1870   1.105       .  S
C1866      H1871   1.110       .  S
C1866      H1872   1.111       .  S
C1873      C1874   1.399       .  A
C1873      C1878   1.392       .  A
C1873      H1880   1.084       .  S
C1874      C1875   1.417       .  A
C1875      C1876   1.402       .  A
C1875      C1882   1.509       .  S
C1876      C1877   1.404       .  A
C1876      H1881   1.084       .  S
C1877      C1878   1.417       .  A
C1878      C1879   1.506       .  S
C1879      H1883   1.111       .  S
C1879      H1884   1.109       .  S
C1879      H1885   1.109       .  S
C1882      H1886   1.110       .  S
C1882      H1887   1.107       .  S
C1882      H1888   1.111       .  S
C1889      C1890   1.398       .  A
C1889      C1894   1.392       .  A
C1889      H1896   1.085       .  S
C1890      C1891   1.411       .  A
C1891      C1892   1.419       .  A
C1891      C1898   1.502       .  S
C1892      C1893   1.412       .  A
C1892      H1897   1.083       .  S
C1893      C1894   1.417       .  A
C1894      C1895   1.506       .  S
C1895      H1899   1.110       .  S
C1895      H1900   1.106       .  S
C1895      H1901   1.111       .  S
C1898      H1902   1.111       .  S
C1898      H1903   1.109       .  S
C1898      H1904   1.111       .  S
C1905      C1906   1.399       .  A
C1905      C1910   1.411       .  A
C1905      H1912   1.084       .  S
C1906      C1907   1.418       .  A
C1907      C1908   1.407       .  A
C1907      C1914   1.503       .  S
C1908      C1909   1.403       .  A
C1908      H1913   1.084       .  S
C1909      C1910   1.425       .  A
C1910      C1911   1.503       .  S
C1911      H1915   1.111       .  S
C1911      H1916   1.103       .  S
C1911      H1917   1.109       .  S
C1914      H1918   1.100       .  S
C1914      H1919   1.109       .  S
C1914      H1920   1.111       .  S
C1921      C1922   1.408       .  A
C1921      C1926   1.406       .  A
C1921      H1928   1.084       .  S
C1922      C1923   1.413       .  A
C1923      C1924   1.394       .  A
C1923      C1930   1.510       .  S
C1924      C1925   1.402       .  A
C1924      H1929   1.084       .  S
C1925      C1926   1.407       .  A
C1926      C1927   1.505       .  S
C1927      H1931   1.111       .  S
C1927      H1932   1.110       .  S
C1927      H1933   1.110       .  S
C1930      H1934   1.108       .  S
C1930      H1935   1.110       .  S
C1930      H1936   1.111       .  S
C1937      C1938   1.414       .  A
C1937      C1942   1.421       .  A
C1937      H1944   1.083       .  S
C1938      C1939   1.428       .  A
C1939      C1940   1.397       .  A
C1939      C1946   1.513       .  S
C1940      C1941   1.397       .  A
C1940      H1945   1.082       .  S
C1941      C1942   1.411       .  A
C1942      C1943   1.501       .  S
C1943      H1947   1.111       .  S
C1943      H1948   1.104       .  S
C1943      H1949   1.110       .  S
C1946      H1950   1.110       .  S
C1946      H1951   1.109       .  S
C1946      H1952   1.111       .  S
C1953      C1954   1.406       .  A
C1953      C1958   1.398       .  A
C1953      H1960   1.085       .  S
C1954      C1955   1.412       .  A
C1955      C1956   1.412       .  A
C1955      C1962   1.505       .  S
C1956      C1957   1.408       .  A
C1956      H1961   1.079       .  S
C1957      C1958   1.414       .  A
C1958      C1959   1.503       .  S
C1959      H1963   1.111       .  S
C1959      H1964   1.109       .  S
C1959      H1965   1.100       .  S
C1962      H1966   1.109       .  S
C1962      H1967   1.111       .  S
C1962      H1968   1.111       .  S
C1969      C1970   1.409       .  A
C1969      C1974   1.395       .  A
C1969      H1976   1.084       .  S
C1970      C1971   1.413       .  A
C1971      C1972   1.413       .  A
C1971      C1978   1.503       .  S
C1972      C1973   1.410       .  A
C1972      H1977   1.084       .  S
C1973      C1974   1.409       .  A
C1974      C1975   1.510       .  S
C1975      H1979   1.107       .  S
C1975      H1980   1.107       .  S
C1975      H1981   1.108       .  S
C1978      H1982   1.110       .  S
C1978      H1983   1.105       .  S
C1978      H1984   1.111       .  S
C1985      C1986   1.417       .  A
C1985      C1990   1.407       .  A
C1985      H1992   1.083       .  S
C1986      C1987   1.414       .  A
C1987      C1988   1.407       .  A
C1987      C1994   1.506       .  S
C1988      C1989   1.411       .  A
C1988      H1993   1.084       .  S
C1989      C1990   1.406       .  A
C1990      C1991   1.501       .  S
C1991      H1995   1.111       .  S
C1991      H1996   1.105       .  S
C1991      H1997   1.110       .  S
C1994      H1998   1.109       .  S
C1994      H1999   1.107       .  S
C1994      H2000   1.105       .  S
C2001      C2002   1.399       .  A
C2001      C2006   1.395       .  A
C2001      H2008   1.085       .  S
C2002      C2003   1.403       .  A
C2003      C2004   1.399       .  A
C2003      C2010   1.501       .  S
C2004      C2005   1.407       .  A
C2004      H2009   1.084       .  S
C2005      C2006   1.409       .  A
C2006      C2007   1.505       .  S
C2007      H2011   1.111       .  S
C2007      H2012   1.104       .  S
C2007      H2013   1.109       .  S
C2010      H2014   1.111       .  S
C2010      H2015   1.104       .  S
C2010      H2016   1.111       .  S
C2017      C2018   1.390       .  A
C2017      C2022   1.399       .  A
C2017      H2024   1.084       .  S
C2018      C2019   1.411       .  A
C2019      C2020   1.406       .  A
C2019      C2026   1.505       .  S
C2020      C2021   1.406       .  A
C2020      H2025   1.083       .  S
C2021      C2022   1.430       .  A
C2022      C2023   1.510       .  S
C2023      H2027   1.110       .  S
C2023      H2028   1.110       .  S
C2023      H2029   1.110       .  S
C2026      H2030   1.109       .  S
C2026      H2031   1.109       .  S
C2026      H2032   1.111       .  S
C2033      C2034   1.412       .  A
C2033      C2038   1.401       .  A
C2033      H2040   1.084       .  S
C2034      C2035   1.417       .  A
C2035      C2036   1.397       .  A
C2035      C2042   1.510       .  S
C2036      C2037   1.405       .  A
C2036      H2041   1.085       .  S
C2037      C2038   1.407       .  A
C2038      C2039   1.507       .  S
C2039      H2043   1.111       .  S
C2039      H2044   1.110       .  S
C2039      H2045   1.108       .  S
C2042      H2046   1.111       .  S
C2042      H2047   1.109       .  S
C2042      H2048   1.110       .  S
C2049      C2050   1.406       .  A
C2049      C2054   1.402       .  A
C2049      H2056   1.084       .  S
C2050      C2051   1.411       .  A
C2051      C2052   1.408       .  A
C2051      C2058   1.506       .  S
C2052      C2053   1.410       .  A
C2052      H2057   1.084       .  S
C2053      C2054   1.416       .  A
C2054      C2055   1.509       .  S
C2055      H2059   1.111       .  S
C2055      H2060   1.110       .  S
C2055      H2061   1.110       .  S
C2058      H2062   1.111       .  S
C2058      H2063   1.110       .  S
C2058      H2064   1.111       .  S
C2065      C2066   1.408       .  A
C2065      C2070   1.415       .  A
C2065      H2072   1.083       .  S
C2066      C2067   1.411       .  A
C2067      C2068   1.391       .  A
C2067      C2074   1.499       .  S
C2068      C2069   1.405       .  A
C2068      H2073   1.084       .  S
C2069      C2070   1.417       .  A
C2070      C2071   1.502       .  S
C2071      H2075   1.111       .  S
C2071      H2076   1.110       .  S
C2071      H2077   1.107       .  S
C2074      H2078   1.110   1_554  S
C2074      H2079   1.096       .  S
C2074      H2080   1.111       .  S
C2081      C2082   1.407       .  A
C2081      C2086   1.391   1_655  A
C2081      H2088   1.084       .  S
C2082      C2083   1.423   1_655  A
C2083      C2084   1.388       .  A
C2083      C2090   1.513       .  S
C2084      C2085   1.389       .  A
C2084      H2089   1.082       .  S
C2085      C2086   1.402       .  A
C2086      C2087   1.509       .  S
C2087      H2091   1.111   1_455  S
C2087      H2092   1.109   1_455  S
C2087      H2093   1.110       .  S
C2090      H2094   1.110       .  S
C2090      H2095   1.109       .  S
C2090      H2096   1.111       .  S
C2097      C2098   1.407       .  A
C2097      C2102   1.415       .  A
C2097      H2104   1.083       .  S
C2098      C2099   1.419       .  A
C2099      C2100   1.389       .  A
C2099      C2106   1.510       .  S
C2100      C2101   1.397       .  A
C2100      H2105   1.085       .  S
C2101      C2102   1.413       .  A
C2102      C2103   1.503       .  S
C2103      H2107   1.111       .  S
C2103      H2108   1.110       .  S
C2103      H2109   1.111       .  S
C2106      H2110   1.109       .  S
C2106      H2111   1.102       .  S
C2106      H2112   1.111       .  S
C2113      C2114   1.397       .  A
C2113      C2118   1.394       .  A
C2113      H2120   1.084       .  S
C2114      C2115   1.416       .  A
C2115      C2116   1.407       .  A
C2115      C2122   1.508       .  S
C2116      C2117   1.406       .  A
C2116      H2121   1.084       .  S
C2117      C2118   1.425       .  A
C2118      C2119   1.511       .  S
C2119      H2123   1.111       .  S
C2119      H2124   1.109       .  S
C2119      H2125   1.110       .  S
C2122      H2126   1.109       .  S
C2122      H2127   1.111       .  S
C2122      H2128   1.111       .  S
C2129      C2130   1.400       .  A
C2129      C2134   1.405       .  A
C2129      H2136   1.085       .  S
C2130      C2131   1.414       .  A
C2131      C2132   1.402       .  A
C2131      C2138   1.506       .  S
C2132      C2133   1.403       .  A
C2132      H2137   1.084       .  S
C2133      C2134   1.420       .  A
C2134      C2135   1.507       .  S
C2135      H2139   1.111       .  S
C2135      H2140   1.110       .  S
C2135      H2141   1.104       .  S
C2138      H2142   1.110       .  S
C2138      H2143   1.106       .  S
C2138      H2144   1.111       .  S
C2145      C2146   1.406       .  A
C2145      C2150   1.401       .  A
C2145      H2152   1.084       .  S
C2146      C2147   1.422       .  A
C2147      C2148   1.399   1_455  A
C2147      C2154   1.511       .  S
C2148      C2149   1.403   1_655  A
C2148      H2153   1.084       .  S
C2149      C2150   1.413       .  A
C2150      C2151   1.502       .  S
C2151      H2155   1.111       .  S
C2151      H2156   1.107       .  S
C2151      H2157   1.110       .  S
C2154      H2158   1.110       .  S
C2154      H2159   1.109       .  S
C2154      H2160   1.111   1_455  S
C2161      C2162   1.414       .  A
C2161      C2166   1.425       .  A
C2161      H2168   1.083       .  S
C2162      C2163   1.416       .  A
C2163      C2164   1.387       .  A
C2163      C2170   1.509       .  S
C2164      C2165   1.395       .  A
C2164      H2169   1.073       .  S
C2165      C2166   1.415       .  A
C2166      C2167   1.502       .  S
C2167      H2171   1.111       .  S
C2167      H2172   1.110       .  S
C2167      H2173   1.111       .  S
C2170      H2174   1.111       .  S
C2170      H2175   1.100       .  S
C2170      H2176   1.111       .  S
C2177      C2178   1.402       .  A
C2177      C2182   1.403       .  A
C2177      H2184   1.084       .  S
C2178      C2179   1.412       .  A
C2179      C2180   1.413       .  A
C2179      C2186   1.502       .  S
C2180      C2181   1.408       .  A
C2180      H2185   1.084       .  S
C2181      C2182   1.421       .  A
C2182      C2183   1.510       .  S
C2183      H2187   1.110       .  S
C2183      H2188   1.104       .  S
C2183      H2189   1.111       .  S
C2186      H2190   1.110       .  S
C2186      H2191   1.107       .  S
C2186      H2192   1.111       .  S
C2193      C2194   1.412       .  A
C2193      C2198   1.426       .  A
C2193      H2200   1.083       .  S
C2194      C2195   1.416       .  A
C2195      C2196   1.392       .  A
C2195      C2202   1.512       .  S
C2196      C2197   1.406       .  A
C2196      H2201   1.082       .  S
C2197      C2198   1.417       .  A
C2198      C2199   1.502       .  S
C2199      H2203   1.111       .  S
C2199      H2204   1.110       .  S
C2199      H2205   1.110       .  S
C2202      H2206   1.111       .  S
C2202      H2207   1.097       .  S
C2202      H2208   1.110       .  S
C2209      C2210   1.404       .  A
C2209      C2214   1.411       .  A
C2209      H2216   1.085       .  S
C2210      C2211   1.416       .  A
C2211      C2212   1.407       .  A
C2211      C2218   1.505       .  S
C2212      C2213   1.409       .  A
C2212      H2217   1.084       .  S
C2213      C2214   1.421       .  A
C2214      C2215   1.495       .  S
C2215      H2219   1.111       .  S
C2215      H2220   1.110   1_554  S
C2215      H2221   1.092   1_554  S
C2218      H2222   1.110       .  S
C2218      H2223   1.109       .  S
C2218      H2224   1.110       .  S
C2225      C2226   1.400       .  A
C2225      C2230   1.400       .  A
C2225      H2232   1.085       .  S
C2226      C2227   1.420       .  A
C2227      C2228   1.410       .  A
C2227      C2234   1.504       .  S
C2228      C2229   1.404       .  A
C2228      H2233   1.084       .  S
C2229      C2230   1.422       .  A
C2230      C2231   1.500       .  S
C2231      H2235   1.111       .  S
C2231      H2236   1.091       .  S
C2231      H2237   1.110       .  S
C2234      H2238   1.110       .  S
C2234      H2239   1.108       .  S
C2234      H2240   1.111       .  S
C2241      C2242   1.407       .  A
C2241      C2246   1.401       .  A
C2241      H2248   1.083   1_545  S
C2242      C2243   1.418       .  A
C2243      C2244   1.412       .  A
C2243      C2250   1.498       .  S
C2244      C2245   1.407       .  A
C2244      H2249   1.084       .  S
C2245      C2246   1.420       .  A
C2246      C2247   1.511       .  S
C2247      H2251   1.111       .  S
C2247      H2252   1.110       .  S
C2247      H2253   1.109       .  S
C2250      H2254   1.109       .  S
C2250      H2255   1.109       .  S
C2250      H2256   1.111       .  S
C2257      C2258   1.404       .  A
C2257      C2262   1.412       .  A
C2257      H2264   1.084       .  S
C2258      C2259   1.407       .  A
C2259      C2260   1.399       .  A
C2259      C2266   1.496       .  S
C2260      C2261   1.407       .  A
C2260      H2265   1.083       .  S
C2261      C2262   1.422       .  A
C2262      C2263   1.507       .  S
C2263      H2267   1.111       .  S
C2263      H2268   1.110       .  S
C2263      H2269   1.110       .  S
C2266      H2270   1.109       .  S
C2266      H2271   1.106       .  S
C2266      H2272   1.111       .  S
C2273      C2274   1.399   1_655  A
C2273      C2278   1.394   1_655  A
C2273      H2280   1.085       .  S
C2274      C2275   1.407       .  A
C2275      C2276   1.407       .  A
C2275      C2282   1.504       .  S
C2276      C2277   1.408       .  A
C2276      H2281   1.084       .  S
C2277      C2278   1.412       .  A
C2278      C2279   1.504       .  S
C2279      H2283   1.111   1_455  S
C2279      H2284   1.108       .  S
C2279      H2285   1.107       .  S
C2282      H2286   1.110       .  S
C2282      H2287   1.107       .  S
C2282      H2288   1.111       .  S
C2289      C2290   1.400       .  A
C2289      C2294   1.389       .  A
C2289      H2296   1.086       .  S
C2290      C2291   1.416       .  A
C2291      C2292   1.397       .  A
C2291      C2298   1.504       .  S
C2292      C2293   1.396       .  A
C2292      H2297   1.085       .  S
C2293      C2294   1.413       .  A
C2294      C2295   1.510       .  S
C2295      H2299   1.111       .  S
C2295      H2300   1.106       .  S
C2295      H2301   1.101       .  S
C2298      H2302   1.106       .  S
C2298      H2303   1.100       .  S
C2298      H2304   1.110       .  S
C2305      C2306   1.405       .  A
C2305      C2310   1.399       .  A
C2305      H2312   1.084       .  S
C2306      C2307   1.416       .  A
C2307      C2308   1.405       .  A
C2307      C2314   1.507       .  S
C2308      C2309   1.408       .  A
C2308      H2313   1.081       .  S
C2309      C2310   1.421       .  A
C2310      C2311   1.512       .  S
C2311      H2315   1.111       .  S
C2311      H2316   1.110       .  S
C2311      H2317   1.109       .  S
C2314      H2318   1.110       .  S
C2314      H2319   1.109       .  S
C2314      H2320   1.111       .  S
C2321      C2322   1.405       .  A
C2321      C2326   1.411       .  A
C2321      H2328   1.083       .  S
C2322      C2323   1.430       .  A
C2323      C2324   1.412       .  A
C2323      C2330   1.508       .  S
C2324      C2325   1.400       .  A
C2324      H2329   1.084       .  S
C2325      C2326   1.415       .  A
C2326      C2327   1.501       .  S
C2327      H2331   1.110       .  S
C2327      H2332   1.107       .  S
C2327      H2333   1.108       .  S
C2330      H2334   1.107       .  S
C2330      H2335   1.111       .  S
C2330      H2336   1.111       .  S
C2337      C2338   1.399       .  A
C2337      C2342   1.396       .  A
C2337      H2344   1.084       .  S
C2338      C2339   1.425       .  A
C2339      C2340   1.410       .  A
C2339      C2346   1.509       .  S
C2340      C2341   1.401       .  A
C2340      H2345   1.084       .  S
C2341      C2342   1.410       .  A
C2342      C2343   1.494       .  S
C2343      H2347   1.109       .  S
C2343      H2348   1.109       .  S
C2343      H2349   1.106       .  S
C2346      H2350   1.110       .  S
C2346      H2351   1.109       .  S
C2346      H2352   1.111       .  S
C2353      C2354   1.406       .  A
C2353      C2358   1.399       .  A
C2353      H2360   1.085       .  S
C2354      C2355   1.413       .  A
C2355      C2356   1.407       .  A
C2355      C2362   1.506       .  S
C2356      C2357   1.408       .  A
C2356      H2361   1.084       .  S
C2357      C2358   1.410       .  A
C2358      C2359   1.504       .  S
C2359      H2363   1.111       .  S
C2359      H2364   1.111       .  S
C2359      H2365   1.103       .  S
C2362      H2366   1.106       .  S
C2362      H2367   1.110       .  S
C2362      H2368   1.111       .  S
C2369      C2370   1.399       .  A
C2369      C2374   1.394       .  A
C2369      H2376   1.084       .  S
C2370      C2371   1.426       .  A
C2371      C2372   1.387       .  A
C2371      C2378   1.519   1_554  S
C2372      C2373   1.397       .  A
C2372      H2377   1.084       .  S
C2373      C2374   1.423       .  A
C2374      C2375   1.514       .  S
C2375      H2379   1.111       .  S
C2375      H2380   1.105       .  S
C2375      H2381   1.110       .  S
C2378      H2382   1.101       .  S
C2378      H2383   1.100       .  S
C2378      H2384   1.111       .  S
C2385      C2386   1.405       .  A
C2385      C2390   1.400       .  A
C2385      H2392   1.085       .  S
C2386      C2387   1.417       .  A
C2387      C2388   1.402   1_545  A
C2387      C2394   1.508       .  S
C2388      C2389   1.402   1_565  A
C2388      H2393   1.085       .  S
C2389      C2390   1.411       .  A
C2390      C2391   1.507       .  S
C2391      H2395   1.111       .  S
C2391      H2396   1.109       .  S
C2391      H2397   1.107       .  S
C2394      H2398   1.104       .  S
C2394      H2399   1.109   1_545  S
C2394      H2400   1.110   1_545  S
C2401      C2402   1.399       .  A
C2401      C2406   1.405       .  A
C2401      H2408   1.084       .  S
C2402      C2403   1.411       .  A
C2403      C2404   1.402       .  A
C2403      C2410   1.506       .  S
C2404      C2405   1.405       .  A
C2404      H2409   1.085       .  S
C2405      C2406   1.419       .  A
C2406      C2407   1.508       .  S
C2407      H2411   1.111       .  S
C2407      H2412   1.108       .  S
C2407      H2413   1.110       .  S
C2410      H2414   1.108       .  S
C2410      H2415   1.110       .  S
C2410      H2416   1.111       .  S
C2417      C2418   1.417       .  A
C2417      C2422   1.411       .  A
C2417      H2424   1.083       .  S
C2418      C2419   1.420       .  A
C2419      C2420   1.416       .  A
C2419      C2426   1.506       .  S
C2420      C2421   1.412       .  A
C2420      H2425   1.083       .  S
C2421      C2422   1.413       .  A
C2422      C2423   1.508       .  S
C2423      H2427   1.111       .  S
C2423      H2428   1.109       .  S
C2423      H2429   1.110       .  S
C2426      H2430   1.110       .  S
C2426      H2431   1.110       .  S
C2426      H2432   1.111       .  S
C2433      C2434   1.402       .  A
C2433      C2438   1.415       .  A
C2433      H2440   1.084       .  S
C2434      C2435   1.420       .  A
C2435      C2436   1.398       .  A
C2435      C2442   1.512       .  S
C2436      C2437   1.404       .  A
C2436      H2441   1.084       .  S
C2437      C2438   1.422       .  A
C2438      C2439   1.492       .  S
C2439      H2443   1.110       .  S
C2439      H2444   1.108       .  S
C2439      H2445   1.104       .  S
C2442      H2446   1.106       .  S
C2442      H2447   1.104       .  S
C2442      H2448   1.110       .  S
C2449      C2450   1.415       .  A
C2449      C2454   1.418       .  A
C2449      H2456   1.081       .  S
C2450      C2451   1.418       .  A
C2451      C2452   1.405       .  A
C2451      C2458   1.510       .  S
C2452      C2453   1.412       .  A
C2452      H2457   1.083       .  S
C2453      C2454   1.416       .  A
C2454      C2455   1.504       .  S
C2455      H2459   1.110       .  S
C2455      H2460   1.108       .  S
C2455      H2461   1.110       .  S
C2458      H2462   1.108       .  S
C2458      H2463   1.110       .  S
C2458      H2464   1.111       .  S
C2465      C2466   1.404       .  A
C2465      C2470   1.408   1_655  A
C2465      H2472   1.085       .  S
C2466      C2467   1.411   1_655  A
C2467      C2468   1.401       .  A
C2467      C2474   1.504       .  S
C2468      C2469   1.398       .  A
C2468      H2473   1.079       .  S
C2469      C2470   1.413       .  A
C2470      C2471   1.504   1_455  S
C2471      H2475   1.111       .  S
C2471      H2476   1.106       .  S
C2471      H2477   1.111       .  S
C2474      H2478   1.110       .  S
C2474      H2479   1.109       .  S
C2474      H2480   1.110       .  S
C2481      C2482   1.400       .  A
C2481      C2486   1.391       .  A
C2481      H2488   1.085       .  S
C2482      C2483   1.419       .  A
C2483      C2484   1.408       .  A
C2483      C2490   1.508       .  S
C2484      C2485   1.406       .  A
C2484      H2489   1.084       .  S
C2485      C2486   1.424       .  A
C2486      C2487   1.514       .  S
C2487      H2491   1.111       .  S
C2487      H2492   1.102       .  S
C2487      H2493   1.110       .  S
C2490      H2494   1.110       .  S
C2490      H2495   1.109       .  S
C2490      H2496   1.111       .  S
C2497      C2498   1.400       .  A
C2497      C2502   1.395       .  A
C2497      H2504   1.083       .  S
C2498      C2499   1.422       .  A
C2499      C2500   1.397       .  A
C2499      C2506   1.511       .  S
C2500      C2501   1.401       .  A
C2500      H2505   1.084   1_554  S
C2501      C2502   1.422       .  A
C2502      C2503   1.512       .  S
C2503      H2507   1.109       .  S
C2503      H2508   1.111       .  S
C2503      H2509   1.110       .  S
C2506      H2510   1.109       .  S
C2506      H2511   1.110       .  S
C2506      H2512   1.111       .  S
C2513      C2514   1.400       .  A
C2513      C2518   1.402       .  A
C2513      H2520   1.084       .  S
C2514      C2515   1.417       .  A
C2515      C2516   1.398       .  A
C2515      C2522   1.501       .  S
C2516      C2517   1.398       .  A
C2516      H2521   1.084       .  S
C2517      C2518   1.421       .  A
C2518      C2519   1.509       .  S
C2519      H2523   1.111       .  S
C2519      H2524   1.108       .  S
C2519      H2525   1.108       .  S
C2522      H2526   1.103       .  S
C2522      H2527   1.109       .  S
C2522      H2528   1.109       .  S
C2529      C2530   1.410       .  A
C2529      C2534   1.407   1_655  A
C2529      H2536   1.079       .  S
C2530      C2531   1.418   1_655  A
C2531      C2532   1.409       .  A
C2531      C2538   1.499       .  S
C2532      C2533   1.403       .  A
C2532      H2537   1.085       .  S
C2533      C2534   1.406       .  A
C2534      C2535   1.506   1_455  S
C2535      H2539   1.109       .  S
C2535      H2540   1.110       .  S
C2535      H2541   1.111       .  S
C2538      H2542   1.099       .  S
C2538      H2543   1.110       .  S
C2538      H2544   1.108       .  S
C2545      C2546   1.404       .  A
C2545      C2550   1.405       .  A
C2545      H2552   1.084       .  S
C2546      C2547   1.412       .  A
C2547      C2548   1.415       .  A
C2547      C2554   1.505       .  S
C2548      C2549   1.414       .  A
C2548      H2553   1.083       .  S
C2549      C2550   1.425       .  A
C2550      C2551   1.511       .  S
C2551      H2555   1.111       .  S
C2551      H2556   1.109       .  S
C2551      H2557   1.110       .  S
C2554      H2558   1.111       .  S
C2554      H2559   1.109       .  S
C2554      H2560   1.111       .  S
C2561      C2562   1.408       .  A
C2561      C2566   1.403       .  A
C2561      H2568   1.084       .  S
C2562      C2563   1.419       .  A
C2563      C2564   1.403       .  A
C2563      C2570   1.501       .  S
C2564      C2565   1.401       .  A
C2564      H2569   1.084       .  S
C2565      C2566   1.416       .  A
C2566      C2567   1.510       .  S
C2567      H2571   1.111       .  S
C2567      H2572   1.108       .  S
C2567      H2573   1.110       .  S
C2570      H2574   1.109       .  S
C2570      H2575   1.110       .  S
C2570      H2576   1.111       .  S
C2577      C2578   1.392       .  A
C2577      C2582   1.402       .  A
C2577      H2584   1.085       .  S
C2578      C2579   1.410       .  A
C2579      C2580   1.396       .  A
C2579      C2586   1.506       .  S
C2580      C2581   1.405       .  A
C2580      H2585   1.084       .  S
C2581      C2582   1.423       .  A
C2582      C2583   1.497       .  S
C2583      H2587   1.111       .  S
C2583      H2588   1.108       .  S
C2583      H2589   1.109       .  S
C2586      H2590   1.108       .  S
C2586      H2591   1.110       .  S
C2586      H2592   1.111       .  S
C2593      C2594   1.412       .  A
C2593      C2598   1.408       .  A
C2593      H2600   1.082       .  S
C2594      C2595   1.417       .  A
C2595      C2596   1.412       .  A
C2595      C2602   1.506       .  S
C2596      C2597   1.407       .  A
C2596      H2601   1.084       .  S
C2597      C2598   1.408       .  A
C2598      C2599   1.503       .  S
C2599      H2603   1.111       .  S
C2599      H2604   1.110       .  S
C2599      H2605   1.102       .  S
C2602      H2606   1.111       .  S
C2602      H2607   1.109       .  S
C2602      H2608   1.111       .  S
C2609      C2610   1.404       .  A
C2609      C2614   1.408       .  A
C2609      H2616   1.084       .  S
C2610      C2611   1.425       .  A
C2611      C2612   1.410       .  A
C2611      C2618   1.509       .  S
C2612      C2613   1.405       .  A
C2612      H2617   1.083       .  S
C2613      C2614   1.426       .  A
C2614      C2615   1.510       .  S
C2615      H2619   1.111       .  S
C2615      H2620   1.111       .  S
C2615      H2621   1.110       .  S
C2618      H2622   1.110       .  S
C2618      H2623   1.110       .  S
C2618      H2624   1.111       .  S
C2625      C2626   1.400   1_545  A
C2625      C2630   1.401       .  A
C2625      H2632   1.084   1_545  S
C2626      C2627   1.418   1_565  A
C2627      C2628   1.391       .  A
C2627      C2634   1.513   1_545  S
C2628      C2629   1.400       .  A
C2628      H2633   1.084       .  S
C2629      C2630   1.422       .  A
C2630      C2631   1.512       .  S
C2631      H2635   1.111       .  S
C2631      H2636   1.111       .  S
C2631      H2637   1.106       .  S
C2634      H2638   1.110       .  S
C2634      H2639   1.105   1_565  S
C2634      H2640   1.111   1_565  S
C2641      C2642   1.409       .  A
C2641      C2646   1.407       .  A
C2641      H2648   1.081       .  S
C2642      C2643   1.406       .  A
C2643      C2644   1.404       .  A
C2643      C2650   1.501       .  S
C2644      C2645   1.406       .  A
C2644      H2649   1.083       .  S
C2645      C2646   1.406       .  A
C2646      C2647   1.505       .  S
C2647      H2651   1.111       .  S
C2647      H2652   1.110       .  S
C2647      H2653   1.110       .  S
C2650      H2654   1.110       .  S
C2650      H2655   1.108       .  S
C2650      H2656   1.111       .  S
C2657      C2658   1.404       .  A
C2657      C2662   1.402       .  A
C2657      H2664   1.077       .  S
C2658      C2659   1.413       .  A
C2659      C2660   1.419       .  A
C2659      C2666   1.501       .  S
C2660      C2661   1.416       .  A
C2660      H2665   1.084       .  S
C2661      C2662   1.420       .  A
C2662      C2663   1.510       .  S
C2663      H2667   1.111       .  S
C2663      H2668   1.109       .  S
C2663      H2669   1.110       .  S
C2666      H2670   1.109       .  S
C2666      H2671   1.110       .  S
C2666      H2672   1.109       .  S
C2673      C2674   1.398       .  A
C2673      C2678   1.388       .  A
C2673      H2680   1.085       .  S
C2674      C2675   1.410       .  A
C2675      C2676   1.403       .  A
C2675      C2682   1.505       .  S
C2676      C2677   1.405       .  A
C2676      H2681   1.084       .  S
C2677      C2678   1.415       .  A
C2678      C2679   1.511       .  S
C2679      H2683   1.111       .  S
C2679      H2684   1.109       .  S
C2679      H2685   1.107       .  S
C2682      H2686   1.107       .  S
C2682      H2687   1.110       .  S
C2682      H2688   1.111       .  S
C2689      C2690   1.393       .  A
C2689      C2694   1.401       .  A
C2689      H2696   1.085       .  S
C2690      C2691   1.412       .  A
C2691      C2692   1.399       .  A
C2691      C2698   1.509       .  S
C2692      C2693   1.400       .  A
C2692      H2697   1.082       .  S
C2693      C2694   1.425       .  A
C2694      C2695   1.507       .  S
C2695      H2699   1.111       .  S
C2695      H2700   1.104       .  S
C2695      H2701   1.109       .  S
C2698      H2702   1.109       .  S
C2698      H2703   1.111       .  S
C2698      H2704   1.111       .  S
C2705      C2706   1.403       .  A
C2705      C2710   1.413       .  A
C2705      H2712   1.084       .  S
C2706      C2707   1.413       .  A
C2707      C2708   1.396   1_455  A
C2707      C2714   1.504       .  S
C2708      C2709   1.405   1_655  A
C2708      H2713   1.084       .  S
C2709      C2710   1.427       .  A
C2710      C2711   1.508       .  S
C2711      H2715   1.110       .  S
C2711      H2716   1.109       .  S
C2711      H2717   1.101       .  S
C2714      H2718   1.110   1_455  S
C2714      H2719   1.097       .  S
C2714      H2720   1.111       .  S
C2721      C2722   1.403       .  A
C2721      C2726   1.406   1_545  A
C2721      H2728   1.085       .  S
C2722      C2723   1.413       .  A
C2723      C2724   1.409       .  A
C2723      C2730   1.506       .  S
C2724      C2725   1.407       .  A
C2724      H2729   1.084       .  S
C2725      C2726   1.415   1_545  A
C2726      C2727   1.504       .  S
C2727      H2731   1.111       .  S
C2727      H2732   1.109       .  S
C2727      H2733   1.109       .  S
C2730      H2734   1.110       .  S
C2730      H2735   1.109       .  S
C2730      H2736   1.111       .  S
C2737      C2738   1.407       .  A
C2737      C2742   1.401       .  A
C2737      H2744   1.081       .  S
C2738      C2739   1.418       .  A
C2739      C2740   1.412       .  A
C2739      C2746   1.506       .  S
C2740      C2741   1.407       .  A
C2740      H2745   1.084       .  S
C2741      C2742   1.411       .  A
C2742      C2743   1.503       .  S
C2743      H2747   1.111       .  S
C2743      H2748   1.103       .  S
C2743      H2749   1.110       .  S
C2746      H2750   1.109       .  S
C2746      H2751   1.111       .  S
C2746      H2752   1.111       .  S
C2753      C2754   1.395       .  A
C2753      C2758   1.404       .  A
C2753      H2760   1.078       .  S
C2754      C2755   1.407       .  A
C2755      C2756   1.404       .  A
C2755      C2762   1.505       .  S
C2756      C2757   1.409       .  A
C2756      H2761   1.084       .  S
C2757      C2758   1.417       .  A
C2758      C2759   1.501       .  S
C2759      H2763   1.111       .  S
C2759      H2764   1.110       .  S
C2759      H2765   1.109       .  S
C2762      H2766   1.110       .  S
C2762      H2767   1.108       .  S
C2762      H2768   1.111       .  S
C2769      C2770   1.391       .  A
C2769      C2774   1.387   1_655  A
C2769      H2776   1.085       .  S
C2770      C2771   1.411       .  A
C2771      C2772   1.417   1_655  A
C2771      C2778   1.503       .  S
C2772      C2773   1.413       .  A
C2772      H2777   1.083       .  S
C2773      C2774   1.426       .  A
C2774      C2775   1.505       .  S
C2775      H2779   1.111   1_455  S
C2775      H2780   1.107       .  S
C2775      H2781   1.092       .  S
C2778      H2782   1.111       .  S
C2778      H2783   1.110       .  S
C2778      H2784   1.111       .  S
C2785      C2786   1.409       .  A
C2785      C2790   1.407   1_565  A
C2785      H2792   1.084       .  S
C2786      C2787   1.408       .  A
C2787      C2788   1.399   1_565  A
C2787      C2794   1.508       .  S
C2788      C2789   1.405       .  A
C2788      H2793   1.084       .  S
C2789      C2790   1.406       .  A
C2790      C2791   1.499       .  S
C2791      H2795   1.111       .  S
C2791      H2796   1.102       .  S
C2791      H2797   1.110       .  S
C2794      H2798   1.109       .  S
C2794      H2799   1.110       .  S
C2794      H2800   1.111       .  S
C2801      C2802   1.414       .  A
C2801      C2806   1.402       .  A
C2801      H2808   1.084       .  S
C2802      C2803   1.420       .  A
C2803      C2804   1.406       .  A
C2803      C2810   1.507       .  S
C2804      C2805   1.402       .  A
C2804      H2809   1.085       .  S
C2805      C2806   1.403       .  A
C2806      C2807   1.506       .  S
C2807      H2811   1.111       .  S
C2807      H2812   1.110       .  S
C2807      H2813   1.110       .  S
C2810      H2814   1.110       .  S
C2810      H2815   1.107       .  S
C2810      H2816   1.111       .  S
C2817      C2818   1.413       .  A
C2817      C2822   1.410       .  A
C2817      H2824   1.084       .  S
C2818      C2819   1.416       .  A
C2819      C2820   1.390       .  A
C2819      C2826   1.510       .  S
C2820      C2821   1.398       .  A
C2820      H2825   1.075       .  S
C2821      C2822   1.405       .  A
C2822      C2823   1.504       .  S
C2823      H2827   1.111       .  S
C2823      H2828   1.111       .  S
C2823      H2829   1.110       .  S
C2826      H2830   1.104       .  S
C2826      H2831   1.109       .  S
C2826      H2832   1.111       .  S
C2833      C2834   1.396       .  A
C2833      C2838   1.386   1_655  A
C2833      H2840   1.053       .  S
C2834      C2835   1.412       .  A
C2835      C2836   1.424   1_655  A
C2835      C2842   1.502       .  S
C2836      C2837   1.417       .  A
C2836      H2841   1.083       .  S
C2837      C2838   1.414       .  A
C2838      C2839   1.505       .  S
C2839      H2843   1.109       .  S
C2839      H2844   1.111       .  S
C2839      H2845   1.086       .  S
C2842      H2846   1.109       .  S
C2842      H2847   1.111       .  S
C2842      H2848   1.111       .  S
C2849      C2850   1.404       .  A
C2849      C2854   1.404       .  A
C2849      H2856   1.084       .  S
C2850      C2851   1.410       .  A
C2851      C2852   1.401       .  A
C2851      C2858   1.500       .  S
C2852      C2853   1.400       .  A
C2852      H2857   1.084       .  S
C2853      C2854   1.409       .  A
C2854      C2855   1.506       .  S
C2855      H2859   1.111       .  S
C2855      H2860   1.110       .  S
C2855      H2861   1.110       .  S
C2858      H2862   1.110       .  S
C2858      H2863   1.110       .  S
C2858      H2864   1.111       .  S
C2865      C2866   1.407       .  A
C2865      C2870   1.404   1_565  A
C2865      H2872   1.084       .  S
C2866      C2867   1.420       .  A
C2867      C2868   1.405       .  A
C2867      C2874   1.502       .  S
C2868      C2869   1.400   1_565  A
C2868      H2873   1.085       .  S
C2869      C2870   1.414       .  A
C2870      C2871   1.505       .  S
C2871      H2875   1.111       .  S
C2871      H2876   1.109       .  S
C2871      H2877   1.101       .  S
C2874      H2878   1.110       .  S
C2874      H2879   1.096       .  S
C2874      H2880   1.111       .  S
C2881      C2882   1.413       .  A
C2881      C2886   1.420       .  A
C2881      H2888   1.083       .  S
C2882      C2883   1.435       .  A
C2883      C2884   1.403       .  A
C2883      C2890   1.512       .  S
C2884      C2885   1.392       .  A
C2884      H2889   1.085       .  S
C2885      C2886   1.413       .  A
C2886      C2887   1.506       .  S
C2887      H2891   1.111       .  S
C2887      H2892   1.110       .  S
C2887      H2893   1.108       .  S
C2890      H2894   1.111       .  S
C2890      H2895   1.110       .  S
C2890      H2896   1.111       .  S
C2897      C2898   1.415       .  A
C2897      C2902   1.415       .  A
C2897      H2904   1.083       .  S
C2898      C2899   1.425       .  A
C2899      C2900   1.393       .  A
C2899      C2906   1.495       .  S
C2900      C2901   1.393       .  A
C2900      H2905   1.086       .  S
C2901      C2902   1.409       .  A
C2902      C2903   1.504       .  S
C2903      H2907   1.111       .  S
C2903      H2908   1.109       .  S
C2903      H2909   1.111       .  S
C2906      H2910   1.103       .  S
C2906      H2911   1.107       .  S
C2906      H2912   1.111       .  S
C2913      C2914   1.400       .  A
C2913      C2918   1.400   1_565  A
C2913      H2920   1.081       .  S
C2914      C2915   1.418       .  A
C2915      C2916   1.407   1_565  A
C2915      C2922   1.506       .  S
C2916      C2917   1.406       .  A
C2916      H2921   1.083       .  S
C2917      C2918   1.420       .  A
C2918      C2919   1.502       .  S
C2919      H2923   1.110       .  S
C2919      H2924   1.110       .  S
C2919      H2925   1.103       .  S
C2922      H2926   1.110       .  S
C2922      H2927   1.107       .  S
C2922      H2928   1.111       .  S
C2929      C2930   1.402       .  A
C2929      C2934   1.406   1_465  A
C2929      H2936   1.083       .  S
C2930      C2931   1.419   1_455  A
C2931      C2932   1.387       .  A
C2931      C2938   1.508       .  S
C2932      C2933   1.389   1_565  A
C2932      H2937   1.084       .  S
C2933      C2934   1.414       .  A
C2934      C2935   1.505       .  S
C2935      H2939   1.109   1_655  S
C2935      H2940   1.106       .  S
C2935      H2941   1.110       .  S
C2938      H2942   1.106       .  S
C2938      H2943   1.108       .  S
C2938      H2944   1.111       .  S
C2945      C2946   1.410       .  A
C2945      C2950   1.413       .  A
C2945      H2952   1.084       .  S
C2946      C2947   1.409       .  A
C2947      C2948   1.412       .  A
C2947      C2954   1.506       .  S
C2948      C2949   1.410       .  A
C2948      H2953   1.079       .  S
C2949      C2950   1.410       .  A
C2950      C2951   1.503       .  S
C2951      H2955   1.111       .  S
C2951      H2956   1.107       .  S
C2951      H2957   1.110       .  S
C2954      H2958   1.110       .  S
C2954      H2959   1.110       .  S
C2954      H2960   1.110       .  S
C2961      C2962   1.399       .  A
C2961      C2966   1.393   1_455  A
C2961      H2968   1.084       .  S
C2962      C2963   1.423   1_455  A
C2963      C2964   1.403       .  A
C2963      C2970   1.509       .  S
C2964      C2965   1.398       .  A
C2964      H2969   1.084       .  S
C2965      C2966   1.410       .  A
C2966      C2967   1.499       .  S
C2967      H2971   1.111   1_655  S
C2967      H2972   1.101       .  S
C2967      H2973   1.110       .  S
C2970      H2974   1.110   1_655  S
C2970      H2975   1.110       .  S
C2970      H2976   1.111       .  S
C2977      C2978   1.404       .  A
C2977      C2982   1.397       .  A
C2977      H2984   1.084       .  S
C2978      C2979   1.412       .  A
C2979      C2980   1.393       .  A
C2979      C2986   1.508       .  S
C2980      C2981   1.408       .  A
C2980      H2985   1.084       .  S
C2981      C2982   1.411       .  A
C2982      C2983   1.501       .  S
C2983      H2987   1.111       .  S
C2983      H2988   1.110       .  S
C2983      H2989   1.110       .  S
C2986      H2990   1.111       .  S
C2986      H2991   1.101       .  S
C2986      H2992   1.110       .  S
C2993      C2994   1.407       .  A
C2993      C2998   1.406       .  A
C2993      H3000   1.084       .  S
C2994      C2995   1.413       .  A
C2995      C2996   1.396       .  A
C2995      C3002   1.502       .  S
C2996      C2997   1.400       .  A
C2996      H3001   1.079       .  S
C2997      C2998   1.410       .  A
C2998      C2999   1.502       .  S
C2999      H3003   1.111       .  S
C2999      H3004   1.101       .  S
C2999      H3005   1.110       .  S
C3002      H3006   1.101       .  S
C3002      H3007   1.109       .  S
C3002      H3008   1.111       .  S
C3009      C3010   1.388       .  A
C3009      C3014   1.393       .  A
C3009      H3016   1.075       .  S
C3010      C3011   1.413       .  A
C3011      C3012   1.413       .  A
C3011      C3018   1.504       .  S
C3012      C3013   1.409       .  A
C3012      H3017   1.084       .  S
C3013      C3014   1.422       .  A
C3014      C3015   1.500       .  S
C3015      H3019   1.111       .  S
C3015      H3020   1.109       .  S
C3015      H3021   1.110       .  S
C3018      H3022   1.110       .  S
C3018      H3023   1.104       .  S
C3018      H3024   1.111       .  S
C3025      C3026   1.403       .  A
C3025      C3030   1.413   1_565  A
C3025      H3032   1.084       .  S
C3026      C3027   1.408       .  A
C3027      C3028   1.408   1_565  A
C3027      C3034   1.507       .  S
C3028      C3029   1.415       .  A
C3028      H3033   1.083       .  S
C3029      C3030   1.425       .  A
C3030      C3031   1.507       .  S
C3031      H3035   1.111       .  S
C3031      H3036   1.110       .  S
C3031      H3037   1.108       .  S
C3034      H3038   1.110       .  S
C3034      H3039   1.111       .  S
C3034      H3040   1.111       .  S
C3041      C3042   1.416       .  A
C3041      C3046   1.421   1_565  A
C3041      H3048   1.083       .  S
C3042      C3043   1.425       .  A
C3043      C3044   1.396       .  A
C3043      C3050   1.504       .  S
C3044      C3045   1.395   1_565  A
C3044      H3049   1.080       .  S
C3045      C3046   1.414       .  A
C3046      C3047   1.504       .  S
C3047      H3051   1.110       .  S
C3047      H3052   1.109       .  S
C3047      H3053   1.109       .  S
C3050      H3054   1.087       .  S
C3050      H3055   1.110       .  S
C3050      H3056   1.111       .  S
C3057      C3058   1.408       .  A
C3057      C3062   1.419       .  A
C3057      H3064   1.083       .  S
C3058      C3059   1.408       .  A
C3059      C3060   1.392       .  A
C3059      C3066   1.512       .  S
C3060      C3061   1.400       .  A
C3060      H3065   1.074       .  S
C3061      C3062   1.415       .  A
C3062      C3063   1.503       .  S
C3063      H3067   1.111       .  S
C3063      H3068   1.110       .  S
C3063      H3069   1.110       .  S
C3066      H3070   1.102       .  S
C3066      H3071   1.110       .  S
C3066      H3072   1.109       .  S
C3073      C3074   1.395       .  A
C3073      C3078   1.397       .  A
C3073      H3080   1.084       .  S
C3074      C3075   1.404       .  A
C3075      C3076   1.401       .  A
C3075      C3082   1.506       .  S
C3076      C3077   1.410       .  A
C3076      H3081   1.083       .  S
C3077      C3078   1.415       .  A
C3078      C3079   1.498       .  S
C3079      H3083   1.110       .  S
C3079      H3084   1.094       .  S
C3079      H3085   1.111       .  S
C3082      H3086   1.111       .  S
C3082      H3087   1.110       .  S
C3082      H3088   1.111       .  S
C3089      C3090   1.411       .  A
C3089      C3094   1.422       .  A
C3089      H3096   1.081       .  S
C3090      C3091   1.424       .  A
C3091      C3092   1.420       .  A
C3091      C3098   1.509       .  S
C3092      C3093   1.413       .  A
C3092      H3097   1.083       .  S
C3093      C3094   1.424       .  A
C3094      C3095   1.505       .  S
C3095      H3099   1.110       .  S
C3095      H3100   1.105       .  S
C3095      H3101   1.110       .  S
C3098      H3102   1.108       .  S
C3098      H3103   1.111       .  S
C3098      H3104   1.111       .  S
C3105      C3106   1.409       .  A
C3105      C3110   1.401       .  A
C3105      H3112   1.084       .  S
C3106      C3107   1.413       .  A
C3107      C3108   1.400       .  A
C3107      C3114   1.506       .  S
C3108      C3109   1.403       .  A
C3108      H3113   1.084       .  S
C3109      C3110   1.407       .  A
C3110      C3111   1.507       .  S
C3111      H3115   1.111       .  S
C3111      H3116   1.109       .  S
C3111      H3117   1.109       .  S
C3114      H3118   1.104       .  S
C3114      H3119   1.110       .  S
C3114      H3120   1.111       .  S
C3121      C3122   1.401       .  A
C3121      C3126   1.400       .  A
C3121      H3128   1.079       .  S
C3122      C3123   1.412       .  A
C3123      C3124   1.425       .  A
C3123      C3130   1.502       .  S
C3124      C3125   1.419       .  A
C3124      H3129   1.083       .  S
C3125      C3126   1.428       .  A
C3126      C3127   1.513       .  S
C3127      H3131   1.111       .  S
C3127      H3132   1.102       .  S
C3127      H3133   1.106       .  S
C3130      H3134   1.110       .  S
C3130      H3135   1.110       .  S
C3130      H3136   1.111       .  S
C3137      C3138   1.417       .  A
C3137      C3142   1.426   1_655  A
C3137      H3144   1.083       .  S
C3138      C3139   1.429       .  A
C3139      C3140   1.409   1_655  A
C3139      C3146   1.496       .  S
C3140      C3141   1.399       .  A
C3140      H3145   1.085       .  S
C3141      C3142   1.417       .  A
C3142      C3143   1.504       .  S
C3143      H3147   1.111   1_455  S
C3143      H3148   1.111       .  S
C3143      H3149   1.109       .  S
C3146      H3150   1.099       .  S
C3146      H3151   1.105       .  S
C3146      H3152   1.111   1_655  S
C3153      C3154   1.399       .  A
C3153      C3158   1.394       .  A
C3153      H3160   1.080       .  S
C3154      C3155   1.410       .  A
C3155      C3156   1.395       .  A
C3155      C3162   1.510       .  S
C3156      C3157   1.408       .  A
C3156      H3161   1.084   1_655  S
C3157      C3158   1.409       .  A
C3158      C3159   1.503       .  S
C3159      H3163   1.109       .  S
C3159      H3164   1.108   1_655  S
C3159      H3165   1.105       .  S
C3162      H3166   1.111       .  S
C3162      H3167   1.106       .  S
C3162      H3168   1.110       .  S
C3169      C3170   1.408       .  A
C3169      C3174   1.404       .  A
C3169      H3176   1.084       .  S
C3170      C3171   1.417       .  A
C3171      C3172   1.395       .  A
C3171      C3178   1.505       .  S
C3172      C3173   1.397       .  A
C3172      H3177   1.080       .  S
C3173      C3174   1.410       .  A
C3174      C3175   1.506       .  S
C3175      H3179   1.111       .  S
C3175      H3180   1.110       .  S
C3175      H3181   1.111       .  S
C3178      H3182   1.101       .  S
C3178      H3183   1.104       .  S
C3178      H3184   1.105       .  S
C3185      C3186   1.396       .  A
C3185      C3190   1.403   1_565  A
C3185      H3192   1.085       .  S
C3186      C3187   1.420   1_565  A
C3187      C3188   1.402       .  A
C3187      C3194   1.502   1_545  S
C3188      C3189   1.397       .  A
C3188      H3193   1.084       .  S
C3189      C3190   1.427       .  A
C3190      C3191   1.511       .  S
C3191      H3195   1.111   1_545  S
C3191      H3196   1.110       .  S
C3191      H3197   1.110       .  S
C3194      H3198   1.110       .  S
C3194      H3199   1.105       .  S
C3194      H3200   1.111   1_565  S
C3201      C3202   1.406   1_455  A
C3201      C3206   1.394       .  A
C3201      H3208   1.084   1_455  S
C3202      C3203   1.411       .  A
C3203      C3204   1.396   1_655  A
C3203      C3210   1.508       .  S
C3204      C3205   1.402       .  A
C3204      H3209   1.085       .  S
C3205      C3206   1.408       .  A
C3206      C3207   1.509       .  S
C3207      H3211   1.111       .  S
C3207      H3212   1.110       .  S
C3207      H3213   1.107       .  S
C3210      H3214   1.110       .  S
C3210      H3215   1.106       .  S
C3210      H3216   1.111       .  S
C3217      C3218   1.407       .  A
C3217      C3222   1.404       .  A
C3217      H3224   1.084       .  S
C3218      C3219   1.417       .  A
C3219      C3220   1.402       .  A
C3219      C3226   1.506       .  S
C3220      C3221   1.399       .  A
C3220      H3225   1.083       .  S
C3221      C3222   1.409       .  A
C3222      C3223   1.506       .  S
C3223      H3227   1.111       .  S
C3223      H3228   1.111       .  S
C3223      H3229   1.109   1_565  S
C3226      H3230   1.104       .  S
C3226      H3231   1.111       .  S
C3226      H3232   1.111       .  S
C3233      C3234   1.406       .  A
C3233      C3238   1.396   1_655  A
C3233      H3240   1.084       .  S
C3234      C3235   1.416       .  A
C3235      C3236   1.401       .  A
C3235      C3242   1.506       .  S
C3236      C3237   1.409   1_655  A
C3236      H3241   1.085       .  S
C3237      C3238   1.417       .  A
C3238      C3239   1.507       .  S
C3239      H3243   1.110       .  S
C3239      H3244   1.110       .  S
C3239      H3245   1.100       .  S
C3242      H3246   1.098       .  S
C3242      H3247   1.107       .  S
C3242      H3248   1.111       .  S
C3249      C3250   1.408       .  A
C3249      C3254   1.406       .  A
C3249      H3256   1.084       .  S
C3250      C3251   1.418       .  A
C3251      C3252   1.405       .  A
C3251      C3258   1.509       .  S
C3252      C3253   1.400       .  A
C3252      H3257   1.082       .  S
C3253      C3254   1.409       .  A
C3254      C3255   1.503       .  S
C3255      H3259   1.111       .  S
C3255      H3260   1.108       .  S
C3255      H3261   1.111       .  S
C3258      H3262   1.109       .  S
C3258      H3263   1.110       .  S
C3258      H3264   1.111       .  S
C3265      C3266   1.407       .  A
C3265      C3270   1.408       .  A
C3265      H3272   1.084       .  S
C3266      C3267   1.409       .  A
C3267      C3268   1.401       .  A
C3267      C3274   1.506       .  S
C3268      C3269   1.402       .  A
C3268      H3273   1.082       .  S
C3269      C3270   1.409       .  A
C3270      C3271   1.503       .  S
C3271      H3275   1.111       .  S
C3271      H3276   1.102       .  S
C3271      H3277   1.110       .  S
C3274      H3278   1.108       .  S
C3274      H3279   1.110       .  S
C3274      H3280   1.111       .  S
C3281      C3282   1.401       .  A
C3281      C3286   1.391       .  A
C3281      H3288   1.084       .  S
C3282      C3283   1.413       .  A
C3283      C3284   1.390       .  A
C3283      C3290   1.502       .  S
C3284      C3285   1.393       .  A
C3284      H3289   1.085       .  S
C3285      C3286   1.409       .  A
C3286      C3287   1.504       .  S
C3287      H3291   1.111       .  S
C3287      H3292   1.109       .  S
C3287      H3293   1.109       .  S
C3290      H3294   1.098       .  S
C3290      H3295   1.110       .  S
C3290      H3296   1.108       .  S
C3297      C3298   1.407       .  A
C3297      C3302   1.403       .  A
C3297      H3304   1.084       .  S
C3298      C3299   1.416       .  A
C3299      C3300   1.404       .  A
C3299      C3306   1.508       .  S
C3300      C3301   1.401       .  A
C3300      H3305   1.084       .  S
C3301      C3302   1.408       .  A
C3302      C3303   1.505       .  S
C3303      H3307   1.111       .  S
C3303      H3308   1.110       .  S
C3303      H3309   1.109       .  S
C3306      H3310   1.110       .  S
C3306      H3311   1.109       .  S
C3306      H3312   1.111       .  S
C3313      C3314   1.399       .  A
C3313      C3318   1.406       .  A
C3313      H3320   1.083       .  S
C3314      C3315   1.416       .  A
C3315      C3316   1.412       .  A
C3315      C3322   1.506       .  S
C3316      C3317   1.407       .  A
C3316      H3321   1.084       .  S
C3317      C3318   1.425       .  A
C3318      C3319   1.509       .  S
C3319      H3323   1.110       .  S
C3319      H3324   1.107       .  S
C3319      H3325   1.110       .  S
C3322      H3326   1.109       .  S
C3322      H3327   1.110       .  S
C3322      H3328   1.111       .  S
C3329      C3330   1.414       .  A
C3329      C3334   1.424       .  A
C3329      H3336   1.084       .  S
C3330      C3331   1.419       .  A
C3331      C3332   1.398       .  A
C3331      C3338   1.496       .  S
C3332      C3333   1.396       .  A
C3332      H3337   1.082       .  S
C3333      C3334   1.416       .  A
C3334      C3335   1.503       .  S
C3335      H3339   1.111       .  S
C3335      H3340   1.110       .  S
C3335      H3341   1.110       .  S
C3338      H3342   1.106       .  S
C3338      H3343   1.106       .  S
C3338      H3344   1.102       .  S
C3345      C3346   1.403       .  A
C3345      C3350   1.413       .  A
C3345      H3352   1.084       .  S
C3346      C3347   1.425       .  A
C3347      C3348   1.417   1_655  A
C3347      C3354   1.509       .  S
C3348      C3349   1.407       .  A
C3348      H3353   1.083       .  S
C3349      C3350   1.430   1_455  A
C3350      C3351   1.510   1_655  S
C3351      H3355   1.111   1_455  S
C3351      H3356   1.110       .  S
C3351      H3357   1.108       .  S
C3354      H3358   1.110       .  S
C3354      H3359   1.103       .  S
C3354      H3360   1.111   1_655  S
C3361      C3362   1.392       .  A
C3361      C3366   1.397   1_556  A
C3361      H3368   1.085       .  S
C3362      C3363   1.419       .  A
C3363      C3364   1.402   1_556  A
C3363      C3370   1.508       .  S
C3364      C3365   1.396       .  A
C3364      H3369   1.084       .  S
C3365      C3366   1.421       .  A
C3366      C3367   1.507       .  S
C3367      H3371   1.111       .  S
C3367      H3372   1.110       .  S
C3367      H3373   1.104       .  S
C3370      H3374   1.099       .  S
C3370      H3375   1.110       .  S
C3370      H3376   1.111       .  S
C3377      C3378   1.410       .  A
C3377      C3382   1.412       .  A
C3377      H3384   1.084       .  S
C3378      C3379   1.413       .  A
C3379      C3380   1.404       .  A
C3379      C3386   1.509       .  S
C3380      C3381   1.403       .  A
C3380      H3385   1.075       .  S
C3381      C3382   1.411       .  A
C3382      C3383   1.505       .  S
C3383      H3387   1.111       .  S
C3383      H3388   1.111       .  S
C3383      H3389   1.110       .  S
C3386      H3390   1.109       .  S
C3386      H3391   1.111       .  S
C3386      H3392   1.109       .  S
C3393      C3394   1.404       .  A
C3393      C3398   1.412       .  A
C3393      H3400   1.084       .  S
C3394      C3395   1.426       .  A
C3395      C3396   1.408       .  A
C3395      C3402   1.511       .  S
C3396      C3397   1.403       .  A
C3396      H3401   1.084       .  S
C3397      C3398   1.427       .  A
C3398      C3399   1.509       .  S
C3399      H3403   1.111       .  S
C3399      H3404   1.108       .  S
C3399      H3405   1.111       .  S
C3402      H3406   1.108       .  S
C3402      H3407   1.110       .  S
C3402      H3408   1.111       .  S
C3409      C3410   1.399       .  A
C3409      C3414   1.415       .  A
C3409      H3416   1.084       .  S
C3410      C3411   1.418       .  A
C3411      C3412   1.411       .  A
C3411      C3418   1.505       .  S
C3412      C3413   1.407       .  A
C3412      H3417   1.084       .  S
C3413      C3414   1.433       .  A
C3414      C3415   1.509       .  S
C3415      H3419   1.111       .  S
C3415      H3420   1.110       .  S
C3415      H3421   1.110       .  S
C3418      H3422   1.109       .  S
C3418      H3423   1.109       .  S
C3418      H3424   1.110       .  S
C3425      C3426   1.404       .  A
C3425      C3430   1.400   1_554  A
C3425      H3432   1.084       .  S
C3426      C3427   1.420       .  A
C3427      C3428   1.403   1_554  A
C3427      C3434   1.505       .  S
C3428      C3429   1.398       .  A
C3428      H3433   1.085       .  S
C3429      C3430   1.410       .  A
C3430      C3431   1.503       .  S
C3431      H3435   1.111       .  S
C3431      H3436   1.110       .  S
C3431      H3437   1.110       .  S
C3434      H3438   1.109       .  S
C3434      H3439   1.102       .  S
C3434      H3440   1.111   1_554  S
C3441      C3442   1.404       .  A
C3441      C3446   1.417   1_655  A
C3441      H3448   1.083       .  S
C3442      C3443   1.418       .  A
C3443      C3444   1.412   1_655  A
C3443      C3450   1.508       .  S
C3444      C3445   1.406       .  A
C3444      H3449   1.083       .  S
C3445      C3446   1.416       .  A
C3446      C3447   1.501       .  S
C3447      H3451   1.111       .  S
C3447      H3452   1.110       .  S
C3447      H3453   1.103       .  S
C3450      H3454   1.110       .  S
C3450      H3455   1.109       .  S
C3450      H3456   1.111       .  S
C3457      C3458   1.392       .  A
C3457      C3462   1.400       .  A
C3457      H3464   1.080       .  S
C3458      C3459   1.406       .  A
C3459      C3460   1.403       .  A
C3459      C3466   1.506       .  S
C3460      C3461   1.410       .  A
C3460      H3465   1.084       .  S
C3461      C3462   1.425       .  A
C3462      C3463   1.510       .  S
C3463      H3467   1.111       .  S
C3463      H3468   1.111       .  S
C3463      H3469   1.109       .  S
C3466      H3470   1.110       .  S
C3466      H3471   1.111       .  S
C3466      H3472   1.111       .  S
C3473      C3474   1.391       .  A
C3473      C3478   1.391       .  A
C3473      H3480   1.084       .  S
C3474      C3475   1.412       .  A
C3475      C3476   1.421       .  A
C3475      C3482   1.503       .  S
C3476      C3477   1.413       .  A
C3476      H3481   1.083       .  S
C3477      C3478   1.433       .  A
C3478      C3479   1.518       .  S
C3479      H3483   1.111       .  S
C3479      H3484   1.108       .  S
C3479      H3485   1.109       .  S
C3482      H3486   1.110       .  S
C3482      H3487   1.110       .  S
C3482      H3488   1.111       .  S
C3489      C3490   1.412       .  A
C3489      C3494   1.405       .  A
C3489      H3496   1.084       .  S
C3490      C3491   1.417       .  A
C3491      C3492   1.401       .  A
C3491      C3498   1.503       .  S
C3492      C3493   1.399       .  A
C3492      H3497   1.084       .  S
C3493      C3494   1.404       .  A
C3494      C3495   1.505       .  S
C3495      H3499   1.111       .  S
C3495      H3500   1.111       .  S
C3495      H3501   1.110       .  S
C3498      H3502   1.109       .  S
C3498      H3503   1.104       .  S
C3498      H3504   1.111       .  S
C3505      C3506   1.406       .  A
C3505      C3510   1.404       .  A
C3505      H3512   1.084       .  S
C3506      C3507   1.419       .  A
C3507      C3508   1.397   1_455  A
C3507      C3514   1.507       .  S
C3508      C3509   1.403       .  A
C3508      H3513   1.084       .  S
C3509      C3510   1.416   1_655  A
C3510      C3511   1.505       .  S
C3511      H3515   1.110       .  S
C3511      H3516   1.103   1_455  S
C3511      H3517   1.109       .  S
C3514      H3518   1.110       .  S
C3514      H3519   1.105   1_455  S
C3514      H3520   1.111   1_455  S
C3521      C3522   1.394       .  A
C3521      C3526   1.393   1_556  A
C3521      H3528   1.081       .  S
C3522      C3523   1.406       .  A
C3523      C3524   1.401   1_556  A
C3523      C3530   1.505       .  S
C3524      C3525   1.409       .  A
C3524      H3529   1.084       .  S
C3525      C3526   1.417       .  A
C3526      C3527   1.503       .  S
C3527      H3531   1.108       .  S
C3527      H3532   1.109       .  S
C3527      H3533   1.106       .  S
C3530      H3534   1.105       .  S
C3530      H3535   1.110       .  S
C3530      H3536   1.111       .  S
C3537      C3538   1.403       .  A
C3537      C3542   1.410   1_456  A
C3537      H3544   1.083       .  S
C3538      C3539   1.413   1_455  A
C3539      C3540   1.396       .  A
C3539      C3546   1.509       .  S
C3540      C3541   1.400   1_556  A
C3540      H3545   1.084       .  S
C3541      C3542   1.411       .  A
C3542      C3543   1.498       .  S
C3543      H3547   1.111   1_655  S
C3543      H3548   1.108       .  S
C3543      H3549   1.105       .  S
C3546      H3550   1.109       .  S
C3546      H3551   1.108       .  S
C3546      H3552   1.111       .  S
C3553      C3554   1.411       .  A
C3553      C3558   1.421       .  A
C3553      H3560   1.083       .  S
C3554      C3555   1.416       .  A
C3555      C3556   1.395       .  A
C3555      C3562   1.508       .  S
C3556      C3557   1.399       .  A
C3556      H3561   1.081       .  S
C3557      C3558   1.413       .  A
C3558      C3559   1.503       .  S
C3559      H3563   1.111       .  S
C3559      H3564   1.110       .  S
C3559      H3565   1.110       .  S
C3562      H3566   1.096       .  S
C3562      H3567   1.110       .  S
C3562      H3568   1.111       .  S
C3569      C3570   1.400       .  A
C3569      C3574   1.394       .  A
C3569      H3576   1.085       .  S
C3570      C3571   1.411       .  A
C3571      C3572   1.412       .  A
C3571      C3578   1.501       .  S
C3572      C3573   1.409       .  A
C3572      H3577   1.083       .  S
C3573      C3574   1.421       .  A
C3574      C3575   1.512       .  S
C3575      H3579   1.111       .  S
C3575      H3580   1.110       .  S
C3575      H3581   1.109       .  S
C3578      H3582   1.110       .  S
C3578      H3583   1.110       .  S
C3578      H3584   1.111       .  S
C3585      C3586   1.398       .  A
C3585      C3590   1.406       .  A
C3585      H3592   1.085       .  S
C3586      C3587   1.408       .  A
C3587      C3588   1.411       .  A
C3587      C3594   1.505       .  S
C3588      C3589   1.413       .  A
C3588      H3593   1.084       .  S
C3589      C3590   1.427       .  A
C3590      C3591   1.509       .  S
C3591      H3595   1.111       .  S
C3591      H3596   1.108       .  S
C3591      H3597   1.110       .  S
C3594      H3598   1.108       .  S
C3594      H3599   1.110       .  S
C3594      H3600   1.111       .  S
C3601      C3602   1.408   1_554  A
C3601      C3606   1.413       .  A
C3601      H3608   1.084   1_554  S
C3602      C3603   1.419       .  A
C3603      C3604   1.401   1_556  A
C3603      C3610   1.507       .  S
C3604      C3605   1.404       .  A
C3604      H3609   1.085       .  S
C3605      C3606   1.413       .  A
C3606      C3607   1.505       .  S
C3607      H3611   1.111       .  S
C3607      H3612   1.108       .  S
C3607      H3613   1.111       .  S
C3610      H3614   1.106       .  S
C3610      H3615   1.108       .  S
C3610      H3616   1.111       .  S
C3617      C3618   1.399       .  A
C3617      C3622   1.396   1_556  A
C3617      H3624   1.085       .  S
C3618      C3619   1.415       .  A
C3619      C3620   1.404       .  A
C3619      C3626   1.500       .  S
C3620      C3621   1.400       .  A
C3620      H3625   1.084       .  S
C3621      C3622   1.418   1_556  A
C3622      C3623   1.511       .  S
C3623      H3627   1.109       .  S
C3623      H3628   1.111       .  S
C3623      H3629   1.104       .  S
C3626      H3630   1.106       .  S
C3626      H3631   1.109       .  S
C3626      H3632   1.111       .  S
C3633      C3634   1.396       .  A
C3633      C3638   1.395       .  A
C3633      H3640   1.081       .  S
C3634      C3635   1.416       .  A
C3635      C3636   1.408       .  A
C3635      C3642   1.506       .  S
C3636      C3637   1.403       .  A
C3636      H3641   1.084       .  S
C3637      C3638   1.420       .  A
C3638      C3639   1.509       .  S
C3639      H3643   1.105       .  S
C3639      H3644   1.098       .  S
C3639      H3645   1.110       .  S
C3642      H3646   1.110       .  S
C3642      H3647   1.110       .  S
C3642      H3648   1.111       .  S
C3649      C3650   1.414       .  A
C3649      C3654   1.416   1_655  A
C3649      H3656   1.083       .  S
C3650      C3651   1.424       .  A
C3651      C3652   1.413       .  A
C3651      C3658   1.506       .  S
C3652      C3653   1.403   1_655  A
C3652      H3657   1.084   1_655  S
C3653      C3654   1.408       .  A
C3654      C3655   1.505       .  S
C3655      H3659   1.111       .  S
C3655      H3660   1.110       .  S
C3655      H3661   1.110       .  S
C3658      H3662   1.104       .  S
C3658      H3663   1.110       .  S
C3658      H3664   1.111       .  S
C3665      C3666   1.399       .  A
C3665      C3670   1.409   1_556  A
C3665      H3672   1.084       .  S
C3666      C3667   1.425   1_556  A
C3667      C3668   1.410       .  A
C3667      C3674   1.510   1_554  S
C3668      C3669   1.401       .  A
C3668      H3673   1.084       .  S
C3669      C3670   1.429       .  A
C3670      C3671   1.510       .  S
C3671      H3675   1.110   1_554  S
C3671      H3676   1.110       .  S
C3671      H3677   1.110       .  S
C3674      H3678   1.108       .  S
C3674      H3679   1.110       .  S
C3674      H3680   1.111   1_556  S
C3681      C3682   1.402       .  A
C3681      C3686   1.413       .  A
C3681      H3688   1.084       .  S
C3682      C3683   1.412       .  A
C3683      C3684   1.402   1_556  A
C3683      C3690   1.507       .  S
C3684      C3685   1.410       .  A
C3684      H3689   1.084       .  S
C3685      C3686   1.423   1_554  A
C3686      C3687   1.504   1_556  S
C3687      H3691   1.111   1_554  S
C3687      H3692   1.111       .  S
C3687      H3693   1.106       .  S
C3690      H3694   1.110       .  S
C3690      H3695   1.102       .  S
C3690      H3696   1.111   1_556  S
C3697      C3698   1.401       .  A
C3697      C3702   1.399       .  A
C3697      H3704   1.084       .  S
C3698      C3699   1.418       .  A
C3699      C3700   1.394   1_655  A
C3699      C3706   1.502       .  S
C3700      C3701   1.393   1_455  A
C3700      H3705   1.082       .  S
C3701      C3702   1.414       .  A
C3702      C3703   1.507       .  S
C3703      H3707   1.111       .  S
C3703      H3708   1.109       .  S
C3703      H3709   1.109       .  S
C3706      H3710   1.109       .  S
C3706      H3711   1.103       .  S
C3706      H3712   1.108   1_655  S
C3713      C3714   1.393       .  A
C3713      C3718   1.397       .  A
C3713      H3720   1.080       .  S
C3714      C3715   1.417       .  A
C3715      C3716   1.422       .  A
C3715      C3722   1.496       .  S
C3716      C3717   1.409       .  A
C3716      H3721   1.083       .  S
C3717      C3718   1.424       .  A
C3718      C3719   1.501       .  S
C3719      H3723   1.111       .  S
C3719      H3724   1.105       .  S
C3719      H3725   1.106       .  S
C3722      H3726   1.110       .  S
C3722      H3727   1.109       .  S
C3722      H3728   1.111       .  S
C3729      C3730   1.394       .  A
C3729      C3734   1.401       .  A
C3729      H3736   1.084       .  S
C3730      C3731   1.417       .  A
C3731      C3732   1.406       .  A
C3731      C3738   1.507       .  S
C3732      C3733   1.404       .  A
C3732      H3737   1.084       .  S
C3733      C3734   1.430       .  A
C3734      C3735   1.512       .  S
C3735      H3739   1.110       .  S
C3735      H3740   1.110       .  S
C3735      H3741   1.108       .  S
C3738      H3742   1.110       .  S
C3738      H3743   1.105       .  S
C3738      H3744   1.111       .  S
C3745      C3746   1.397       .  A
C3745      C3750   1.399       .  A
C3745      H3752   1.079       .  S
C3746      C3747   1.415       .  A
C3747      C3748   1.403       .  A
C3747      C3754   1.499       .  S
C3748      C3749   1.398       .  A
C3748      H3753   1.085       .  S
C3749      C3750   1.413       .  A
C3750      C3751   1.506       .  S
C3751      H3755   1.111       .  S
C3751      H3756   1.103       .  S
C3751      H3757   1.110       .  S
C3754      H3758   1.098       .  S
C3754      H3759   1.110       .  S
C3754      H3760   1.111       .  S
C3761      C3762   1.396       .  A
C3761      C3766   1.402       .  A
C3761      H3768   1.081       .  S
C3762      C3763   1.418       .  A
C3763      C3764   1.398       .  A
C3763      C3770   1.504       .  S
C3764      C3765   1.396       .  A
C3764      H3769   1.085       .  S
C3765      C3766   1.418       .  A
C3766      C3767   1.507       .  S
C3767      H3771   1.108       .  S
C3767      H3772   1.110       .  S
C3767      H3773   1.106       .  S
C3770      H3774   1.110       .  S
C3770      H3775   1.106       .  S
C3770      H3776   1.111       .  S
C3777      C3778   1.398       .  A
C3777      C3782   1.394       .  A
C3777      H3784   1.083       .  S
C3778      C3779   1.408       .  A
C3779      C3780   1.395       .  A
C3779      C3786   1.508       .  S
C3780      C3781   1.405       .  A
C3780      H3785   1.078       .  S
C3781      C3782   1.420       .  A
C3782      C3783   1.511       .  S
C3783      H3787   1.111       .  S
C3783      H3788   1.110       .  S
C3783      H3789   1.111       .  S
C3786      H3790   1.110       .  S
C3786      H3791   1.104       .  S
C3786      H3792   1.111       .  S
C3793      C3794   1.393       .  A
C3793      C3798   1.406       .  A
C3793      H3800   1.082       .  S
C3794      C3795   1.418       .  A
C3795      C3796   1.408       .  A
C3795      C3802   1.503       .  S
C3796      C3797   1.403       .  A
C3796      H3801   1.084       .  S
C3797      C3798   1.432       .  A
C3798      C3799   1.510       .  S
C3799      H3803   1.109       .  S
C3799      H3804   1.110       .  S
C3799      H3805   1.110       .  S
C3802      H3806   1.110       .  S
C3802      H3807   1.103       .  S
C3802      H3808   1.109       .  S
C3809      C3810   1.401       .  A
C3809      C3814   1.395       .  A
C3809      H3816   1.085       .  S
C3810      C3811   1.404       .  A
C3811      C3812   1.401       .  A
C3811      C3818   1.507       .  S
C3812      C3813   1.411       .  A
C3812      H3817   1.084       .  S
C3813      C3814   1.416       .  A
C3814      C3815   1.510       .  S
C3815      H3819   1.111       .  S
C3815      H3820   1.110       .  S
C3815      H3821   1.110       .  S
C3818      H3822   1.110       .  S
C3818      H3823   1.109       .  S
C3818      H3824   1.111       .  S
C3825      C3826   1.391       .  A
C3825      C3830   1.399   1_655  A
C3825      H3832   1.085       .  S
C3826      C3827   1.414       .  A
C3827      C3828   1.398   1_655  A
C3827      C3834   1.504       .  S
C3828      C3829   1.400       .  A
C3828      H3833   1.084       .  S
C3829      C3830   1.429       .  A
C3830      C3831   1.511       .  S
C3831      H3835   1.111   1_455  S
C3831      H3836   1.109       .  S
C3831      H3837   1.111       .  S
C3834      H3838   1.103       .  S
C3834      H3839   1.110       .  S
C3834      H3840   1.111   1_655  S
C3841      C3842   1.401       .  A
C3841      C3846   1.407       .  A
C3841      H3848   1.083       .  S
C3842      C3843   1.410       .  A
C3843      C3844   1.407       .  A
C3843      C3850   1.506       .  S
C3844      C3845   1.413       .  A
C3844      H3849   1.083       .  S
C3845      C3846   1.419       .  A
C3846      C3847   1.501   1_655  S
C3847      H3851   1.111       .  S
C3847      H3852   1.109       .  S
C3847      H3853   1.100       .  S
C3850      H3854   1.110       .  S
C3850      H3855   1.105       .  S
C3850      H3856   1.111       .  S
C3857      C3858   1.410       .  A
C3857      C3862   1.402       .  A
C3857      H3864   1.083       .  S
C3858      C3859   1.422       .  A
C3859      C3860   1.401       .  A
C3859      C3866   1.509       .  S
C3860      C3861   1.398       .  A
C3860      H3865   1.085       .  S
C3861      C3862   1.406       .  A
C3862      C3863   1.507       .  S
C3863      H3867   1.111       .  S
C3863      H3868   1.110       .  S
C3863      H3869   1.111       .  S
C3866      H3870   1.110       .  S
C3866      H3871   1.111       .  S
C3866      H3872   1.111       .  S
C3873      C3874   1.403       .  A
C3873      C3878   1.406       .  A
C3873      H3880   1.084       .  S
C3874      C3875   1.422       .  A
C3875      C3876   1.403       .  A
C3875      C3882   1.510       .  S
C3876      C3877   1.400       .  A
C3876      H3881   1.084       .  S
C3877      C3878   1.419       .  A
C3878      C3879   1.508       .  S
C3879      H3883   1.111       .  S
C3879      H3884   1.110       .  S
C3879      H3885   1.110       .  S
C3882      H3886   1.110       .  S
C3882      H3887   1.111       .  S
C3882      H3888   1.111       .  S
C3889      C3890   1.407       .  A
C3889      C3894   1.406       .  A
C3889      H3896   1.084       .  S
C3890      C3891   1.408       .  A
C3891      C3892   1.407       .  A
C3891      C3898   1.507       .  S
C3892      C3893   1.407       .  A
C3892      H3897   1.077       .  S
C3893      C3894   1.411       .  A
C3894      C3895   1.506       .  S
C3895      H3899   1.111       .  S
C3895      H3900   1.110       .  S
C3895      H3901   1.109       .  S
C3898      H3902   1.110       .  S
C3898      H3903   1.110       .  S
C3898      H3904   1.108       .  S
C3905      C3906   1.407       .  A
C3905      C3910   1.422       .  A
C3905      H3912   1.083       .  S
C3906      C3907   1.434       .  A
C3907      C3908   1.393       .  A
C3907      C3914   1.504       .  S
C3908      C3909   1.383       .  A
C3908      H3913   1.079       .  S
C3909      C3910   1.422       .  A
C3910      C3911   1.502       .  S
C3911      H3915   1.111       .  S
C3911      H3916   1.110       .  S
C3911      H3917   1.105       .  S
C3914      H3918   1.108       .  S
C3914      H3919   1.104       .  S
C3914      H3920   1.105       .  S
C3921      C3922   1.399       .  A
C3921      C3926   1.402   1_565  A
C3921      H3928   1.079       .  S
C3922      C3923   1.416       .  A
C3923      C3924   1.419   1_565  A
C3923      C3930   1.504       .  S
C3924      C3925   1.408       .  A
C3924      H3929   1.083       .  S
C3925      C3926   1.418       .  A
C3926      C3927   1.505       .  S
C3927      H3931   1.111   1_545  S
C3927      H3932   1.110       .  S
C3927      H3933   1.102       .  S
C3930      H3934   1.110       .  S
C3930      H3935   1.111       .  S
C3930      H3936   1.111   1_565  S
C3937      C3938   1.391       .  A
C3937      C3942   1.395   1_556  A
C3937      H3944   1.084       .  S
C3938      C3939   1.413       .  A
C3939      C3940   1.410   1_556  A
C3939      C3946   1.504       .  S
C3940      C3941   1.404       .  A
C3940      H3945   1.084       .  S
C3941      C3942   1.418       .  A
C3942      C3943   1.500       .  S
C3943      H3947   1.111       .  S
C3943      H3948   1.110       .  S
C3943      H3949   1.104       .  S
C3946      H3950   1.110       .  S
C3946      H3951   1.105       .  S
C3946      H3952   1.111   1_556  S
C3953      C3954   1.415       .  A
C3953      C3958   1.405       .  A
C3953      H3960   1.083       .  S
C3954      C3955   1.409       .  A
C3955      C3956   1.417       .  A
C3955      C3962   1.504       .  S
C3956      C3957   1.418       .  A
C3956      H3961   1.084       .  S
C3957      C3958   1.412       .  A
C3958      C3959   1.509       .  S
C3959      H3963   1.111       .  S
C3959      H3964   1.108       .  S
C3959      H3965   1.105       .  S
C3962      H3966   1.109       .  S
C3962      H3967   1.110       .  S
C3962      H3968   1.111       .  S
C3969      C3970   1.399       .  A
C3969      C3974   1.403       .  A
C3969      H3976   1.085       .  S
C3970      C3971   1.405       .  A
C3971      C3972   1.402       .  A
C3971      C3978   1.508       .  S
C3972      C3973   1.413       .  A
C3972      H3977   1.083       .  S
C3973      C3974   1.423       .  A
C3974      C3975   1.508       .  S
C3975      H3979   1.111       .  S
C3975      H3980   1.110       .  S
C3975      H3981   1.108       .  S
C3978      H3982   1.110       .  S
C3978      H3983   1.107       .  S
C3978      H3984   1.111       .  S
C3985      C3986   1.410       .  A
C3985      C3990   1.403       .  A
C3985      H3992   1.084       .  S
C3986      C3987   1.413       .  A
C3987      C3988   1.414       .  A
C3987      C3994   1.505       .  S
C3988      C3989   1.411       .  A
C3988      H3993   1.083       .  S
C3989      C3990   1.416       .  A
C3990      C3991   1.506       .  S
C3991      H3995   1.111       .  S
C3991      H3996   1.110       .  S
C3991      H3997   1.107       .  S
C3994      H3998   1.110       .  S
C3994      H3999   1.109       .  S
C3994      H4000   1.110       .  S
C4001      C4002   1.393   1_556  A
C4001      C4006   1.395       .  A
C4001      H4008   1.084       .  S
C4002      C4003   1.409       .  A
C4003      C4004   1.404   1_554  A
C4003      C4010   1.498       .  S
C4004      C4005   1.400       .  A
C4004      H4009   1.080       .  S
C4005      C4006   1.416       .  A
C4006      C4007   1.503       .  S
C4007      H4011   1.111       .  S
C4007      H4012   1.109       .  S
C4007      H4013   1.104       .  S
C4010      H4014   1.111       .  S
C4010      H4015   1.107       .  S
C4010      H4016   1.111       .  S
C4017      C4018   1.396       .  A
C4017      C4022   1.399   1_565  A
C4017      H4024   1.073       .  S
C4018      C4019   1.413       .  A
C4019      C4020   1.414   1_565  A
C4019      C4026   1.503       .  S
C4020      C4021   1.412       .  A
C4020      H4025   1.083       .  S
C4021      C4022   1.423       .  A
C4022      C4023   1.508       .  S
C4023      H4027   1.110       .  S
C4023      H4028   1.109       .  S
C4023      H4029   1.106       .  S
C4026      H4030   1.106       .  S
C4026      H4031   1.110       .  S
C4026      H4032   1.111       .  S
C4033      C4034   1.413       .  A
C4033      C4038   1.419       .  A
C4033      H4040   1.083       .  S
C4034      C4035   1.421       .  A
C4035      C4036   1.397       .  A
C4035      C4042   1.498       .  S
C4036      C4037   1.394       .  A
C4036      H4041   1.082       .  S
C4037      C4038   1.416       .  A
C4038      C4039   1.504       .  S
C4039      H4043   1.111       .  S
C4039      H4044   1.110       .  S
C4039      H4045   1.110       .  S
C4042      H4046   1.099       .  S
C4042      H4047   1.110       .  S
C4042      H4048   1.111       .  S
C4049      C4050   1.392       .  A
C4049      C4054   1.391       .  A
C4049      H4056   1.074       .  S
C4050      C4051   1.410       .  A
C4051      C4052   1.415       .  A
C4051      C4058   1.504       .  S
C4052      C4053   1.414       .  A
C4052      H4057   1.083       .  S
C4053      C4054   1.424       .  A
C4054      C4055   1.509       .  S
C4055      H4059   1.111       .  S
C4055      H4060   1.105       .  S
C4055      H4061   1.104       .  S
C4058      H4062   1.111       .  S
C4058      H4063   1.109       .  S
C4058      H4064   1.111       .  S
C4065      C4066   1.404       .  A
C4065      C4070   1.413       .  A
C4065      H4072   1.084       .  S
C4066      C4067   1.425       .  A
C4067      C4068   1.402       .  A
C4067      C4074   1.511       .  S
C4068      C4069   1.395       .  A
C4068      H4073   1.082       .  S
C4069      C4070   1.416       .  A
C4070      C4071   1.503       .  S
C4071      H4075   1.111       .  S
C4071      H4076   1.110       .  S
C4071      H4077   1.100       .  S
C4074      H4078   1.110       .  S
C4074      H4079   1.110       .  S
C4074      H4080   1.111       .  S
C4081      C4082   1.396       .  A
C4081      C4086   1.398       .  A
C4081      H4088   1.085       .  S
C4082      C4083   1.420   1_545  A
C4083      C4084   1.390       .  A
C4083      C4090   1.511       .  S
C4084      C4085   1.399       .  A
C4084      H4089   1.084       .  S
C4085      C4086   1.421   1_565  A
C4086      C4087   1.505       .  S
C4087      H4091   1.111       .  S
C4087      H4092   1.107       .  S
C4087      H4093   1.109       .  S
C4090      H4094   1.109   1_565  S
C4090      H4095   1.111       .  S
C4090      H4096   1.111       .  S
C4097      C4098   1.404       .  A
C4097      C4102   1.408   1_556  A
C4097      H4104   1.084       .  S
C4098      C4099   1.414       .  A
C4099      C4100   1.408   1_556  A
C4099      C4106   1.503       .  S
C4100      C4101   1.403       .  A
C4100      H4105   1.084       .  S
C4101      C4102   1.410       .  A
C4102      C4103   1.502       .  S
C4103      H4107   1.111       .  S
C4103      H4108   1.110       .  S
C4103      H4109   1.104       .  S
C4106      H4110   1.110       .  S
C4106      H4111   1.108       .  S
C4106      H4112   1.111       .  S
C4113      C4114   1.399       .  A
C4113      C4118   1.403   1_546  A
C4113      H4120   1.085       .  S
C4114      C4115   1.410       .  A
C4115      C4116   1.406   1_546  A
C4115      C4122   1.503       .  S
C4116      C4117   1.404       .  A
C4116      H4121   1.084       .  S
C4117      C4118   1.414       .  A
C4118      C4119   1.503       .  S
C4119      H4123   1.111   1_554  S
C4119      H4124   1.110       .  S
C4119      H4125   1.101   1_554  S
C4122      H4126   1.109       .  S
C4122      H4127   1.110       .  S
C4122      H4128   1.111   1_556  S
C4129      C4130   1.412       .  A
C4129      C4134   1.412       .  A
C4129      H4136   1.084       .  S
C4130      C4131   1.417       .  A
C4131      C4132   1.391       .  A
C4131      C4138   1.506       .  S
C4132      C4133   1.396       .  A
C4132      H4137   1.078       .  S
C4133      C4134   1.408       .  A
C4134      C4135   1.504       .  S
C4135      H4139   1.111       .  S
C4135      H4140   1.110       .  S
C4135      H4141   1.110       .  S
C4138      H4142   1.107       .  S
C4138      H4143   1.098       .  S
C4138      H4144   1.111       .  S
C4145      C4146   1.408       .  A
C4145      C4150   1.405       .  A
C4145      H4152   1.084       .  S
C4146      C4147   1.423       .  A
C4147      C4148   1.401       .  A
C4147      C4154   1.509       .  S
C4148      C4149   1.401       .  A
C4148      H4153   1.085       .  S
C4149      C4150   1.416       .  A
C4150      C4151   1.506       .  S
C4151      H4155   1.111       .  S
C4151      H4156   1.101       .  S
C4151      H4157   1.108       .  S
C4154      H4158   1.107       .  S
C4154      H4159   1.100       .  S
C4154      H4160   1.111       .  S
C4161      C4162   1.412       .  A
C4161      C4166   1.423       .  A
C4161      H4168   1.083       .  S
C4162      C4163   1.430       .  A
C4163      C4164   1.418       .  A
C4163      C4170   1.508       .  S
C4164      C4165   1.408       .  A
C4164      H4169   1.083       .  S
C4165      C4166   1.425       .  A
C4166      C4167   1.507       .  S
C4167      H4171   1.111       .  S
C4167      H4172   1.111       .  S
C4167      H4173   1.108       .  S
C4170      H4174   1.110       .  S
C4170      H4175   1.106       .  S
C4170      H4176   1.111       .  S
C4177      C4178   1.412   1_554  A
C4177      C4182   1.407       .  A
C4177      H4184   1.084   1_554  S
C4178      C4179   1.416       .  A
C4179      C4180   1.414   1_556  A
C4179      C4186   1.505       .  S
C4180      C4181   1.411       .  A
C4180      H4185   1.083       .  S
C4181      C4182   1.414       .  A
C4182      C4183   1.508       .  S
C4183      H4187   1.111       .  S
C4183      H4188   1.110       .  S
C4183      H4189   1.104       .  S
C4186      H4190   1.110       .  S
C4186      H4191   1.102       .  S
C4186      H4192   1.111       .  S
C4193      C4194   1.402       .  A
C4193      C4198   1.393       .  A
C4193      H4200   1.084       .  S
C4194      C4195   1.411       .  A
C4195      C4196   1.403       .  A
C4195      C4202   1.507       .  S
C4196      C4197   1.409       .  A
C4196      H4201   1.084   1_556  S
C4197      C4198   1.415       .  A
C4198      C4199   1.503       .  S
C4199      H4203   1.111       .  S
C4199      H4204   1.109       .  S
C4199      H4205   1.106       .  S
C4202      H4206   1.111       .  S
C4202      H4207   1.109       .  S
C4202      H4208   1.111       .  S
C4209      C4210   1.405       .  A
C4209      C4214   1.406       .  A
C4209      H4216   1.084       .  S
C4210      C4211   1.410       .  A
C4211      C4212   1.411       .  A
C4211      C4218   1.506       .  S
C4212      C4213   1.407       .  A
C4212      H4217   1.080       .  S
C4213      C4214   1.411       .  A
C4214      C4215   1.501       .  S
C4215      H4219   1.111       .  S
C4215      H4220   1.110       .  S
C4215      H4221   1.110       .  S
C4218      H4222   1.110       .  S
C4218      H4223   1.110       .  S
C4218      H4224   1.110       .  S
C4225      C4226   1.397       .  A
C4225      C4230   1.399   1_565  A
C4225      H4232   1.068       .  S
C4226      C4227   1.410       .  A
C4227      C4228   1.425   1_565  A
C4227      C4234   1.502       .  S
C4228      C4229   1.421       .  A
C4228      H4233   1.083       .  S
C4229      C4230   1.422       .  A
C4230      C4231   1.513       .  S
C4231      H4235   1.108   1_545  S
C4231      H4236   1.093       .  S
C4231      H4237   1.111       .  S
C4234      H4238   1.111       .  S
C4234      H4239   1.110       .  S
C4234      H4240   1.110       .  S
C4241      C4242   1.413   1_554  A
C4241      C4246   1.412       .  A
C4241      H4248   1.084   1_554  S
C4242      C4243   1.411       .  A
C4243      C4244   1.413   1_556  A
C4243      C4250   1.500       .  S
C4244      C4245   1.416       .  A
C4244      H4249   1.083       .  S
C4245      C4246   1.417       .  A
C4246      C4247   1.506       .  S
C4247      H4251   1.111       .  S
C4247      H4252   1.108       .  S
C4247      H4253   1.110       .  S
C4250      H4254   1.101       .  S
C4250      H4255   1.110       .  S
C4250      H4256   1.111       .  S
C4257      C4258   1.409       .  A
C4257      C4262   1.412   1_556  A
C4257      H4264   1.084       .  S
C4258      C4259   1.405       .  A
C4259      C4260   1.396       .  A
C4259      C4266   1.493       .  S
C4260      C4261   1.400   1_556  A
C4260      H4265   1.075       .  S
C4261      C4262   1.414       .  A
C4262      C4263   1.505       .  S
C4263      H4267   1.111       .  S
C4263      H4268   1.108       .  S
C4263      H4269   1.109       .  S
C4266      H4270   1.108       .  S
C4266      H4271   1.106       .  S
C4266      H4272   1.111       .  S
C4273      C4274   1.405       .  A
C4273      C4278   1.411   1_565  A
C4273      H4280   1.084       .  S
C4274      C4275   1.403       .  A
C4275      C4276   1.391       .  A
C4275      C4282   1.511       .  S
C4276      C4277   1.408   1_565  A
C4276      H4281   1.082       .  S
C4277      C4278   1.414       .  A
C4278      C4279   1.504       .  S
C4279      H4283   1.111       .  S
C4279      H4284   1.098       .  S
C4279      H4285   1.110       .  S
C4282      H4286   1.099       .  S
C4282      H4287   1.110       .  S
C4282      H4288   1.109       .  S
C4289      C4290   1.396       .  A
C4289      C4294   1.399       .  A
C4289      H4296   1.078       .  S
C4290      C4291   1.420       .  A
C4291      C4292   1.426       .  A
C4291      C4298   1.505       .  S
C4292      C4293   1.415       .  A
C4292      H4297   1.083       .  S
C4293      C4294   1.416       .  A
C4294      C4295   1.495       .  S
C4295      H4299   1.101       .  S
C4295      H4300   1.108       .  S
C4295      H4301   1.102       .  S
C4298      H4302   1.109       .  S
C4298      H4303   1.110       .  S
C4298      H4304   1.111       .  S
C4305      C4306   1.392       .  A
C4305      C4310   1.395       .  A
C4305      H4312   1.076       .  S
C4306      C4307   1.415       .  A
C4307      C4308   1.405       .  A
C4307      C4314   1.503       .  S
C4308      C4309   1.404       .  A
C4308      H4313   1.084       .  S
C4309      C4310   1.425       .  A
C4310      C4311   1.512       .  S
C4311      H4315   1.111       .  S
C4311      H4316   1.110       .  S
C4311      H4317   1.110       .  S
C4314      H4318   1.098       .  S
C4314      H4319   1.110       .  S
C4314      H4320   1.111       .  S
C4321      C4322   1.414       .  A
C4321      C4326   1.420       .  A
C4321      H4328   1.083       .  S
C4322      C4323   1.415       .  A
C4323      C4324   1.396       .  A
C4323      C4330   1.497       .  S
C4324      C4325   1.401       .  A
C4324      H4329   1.084       .  S
C4325      C4326   1.413       .  A
C4326      C4327   1.502       .  S
C4327      H4331   1.111       .  S
C4327      H4332   1.106       .  S
C4327      H4333   1.110       .  S
C4330      H4334   1.101       .  S
C4330      H4335   1.110       .  S
C4330      H4336   1.111       .  S
C4337      C4338   1.414       .  A
C4337      C4342   1.421       .  A
C4337      H4344   1.084       .  S
C4338      C4339   1.424       .  A
C4339      C4340   1.397       .  A
C4339      C4346   1.507       .  S
C4340      C4341   1.397       .  A
C4340      H4345   1.083       .  S
C4341      C4342   1.413       .  A
C4342      C4343   1.503       .  S
C4343      H4347   1.111       .  S
C4343      H4348   1.111       .  S
C4343      H4349   1.110       .  S
C4346      H4350   1.104       .  S
C4346      H4351   1.109       .  S
C4346      H4352   1.111       .  S
C4353      C4354   1.405       .  A
C4353      C4358   1.411       .  A
C4353      H4360   1.084       .  S
C4354      C4355   1.419       .  A
C4355      C4356   1.390       .  A
C4355      C4362   1.501       .  S
C4356      C4357   1.387       .  A
C4356      H4361   1.078       .  S
C4357      C4358   1.415       .  A
C4358      C4359   1.505       .  S
C4359      H4363   1.111       .  S
C4359      H4364   1.106       .  S
C4359      H4365   1.110       .  S
C4362      H4366   1.106       .  S
C4362      H4367   1.106       .  S
C4362      H4368   1.105       .  S
C4369      C4370   1.406       .  A
C4369      C4374   1.388       .  A
C4369      H4376   1.083       .  S
C4370      C4371   1.415       .  A
C4371      C4372   1.418       .  A
C4371      C4378   1.504       .  S
C4372      C4373   1.409       .  A
C4372      H4377   1.084       .  S
C4373      C4374   1.410       .  A
C4374      C4375   1.511       .  S
C4375      H4379   1.108       .  S
C4375      H4380   1.108       .  S
C4375      H4381   1.108       .  S
C4378      H4382   1.109       .  S
C4378      H4383   1.110       .  S
C4378      H4384   1.111       .  S
C4385      C4386   1.404       .  A
C4385      C4390   1.393       .  A
C4385      H4392   1.085       .  S
C4386      C4387   1.411       .  A
C4387      C4388   1.412       .  A
C4387      C4394   1.502       .  S
C4388      C4389   1.408       .  A
C4388      H4393   1.084       .  S
C4389      C4390   1.410       .  A
C4390      C4391   1.506       .  S
C4391      H4395   1.109       .  S
C4391      H4396   1.108       .  S
C4391      H4397   1.110       .  S
C4394      H4398   1.108       .  S
C4394      H4399   1.110       .  S
C4394      H4400   1.111       .  S
C4401      C4402   1.413       .  A
C4401      C4406   1.420   1_565  A
C4401      H4408   1.083       .  S
C4402      C4403   1.418       .  A
C4403      C4404   1.381   1_565  A
C4403      C4410   1.512       .  S
C4404      C4405   1.394       .  A
C4404      H4409   1.078       .  S
C4405      C4406   1.414       .  A
C4406      C4407   1.503       .  S
C4407      H4411   1.111   1_545  S
C4407      H4412   1.110       .  S
C4407      H4413   1.109       .  S
C4410      H4414   1.110   1_565  S
C4410      H4415   1.093       .  S
C4410      H4416   1.110       .  S
C4417      C4418   1.404       .  A
C4417      C4422   1.399       .  A
C4417      H4424   1.084       .  S
C4418      C4419   1.438       .  A
C4419      C4420   1.410   1_565  A
C4419      C4426   1.515   1_565  S
C4420      C4421   1.397       .  A
C4420      H4425   1.084       .  S
C4421      C4422   1.403   1_545  A
C4422      C4423   1.491       .  S
C4423      H4427   1.106       .  S
C4423      H4428   1.109       .  S
C4423      H4429   1.109       .  S
C4426      H4430   1.095   1_545  S
C4426      H4431   1.110       .  S
C4426      H4432   1.109       .  S
C4433      C4434   1.399       .  A
C4433      C4438   1.395       .  A
C4433      H4440   1.084       .  S
C4434      C4435   1.411       .  A
C4435      C4436   1.411       .  A
C4435      C4442   1.507       .  S
C4436      C4437   1.415       .  A
C4436      H4441   1.084       .  S
C4437      C4438   1.415       .  A
C4438      C4439   1.495       .  S
C4439      H4443   1.112       .  S
C4439      H4444   1.105       .  S
C4439      H4445   1.109       .  S
C4442      H4446   1.111       .  S
C4442      H4447   1.109       .  S
C4442      H4448   1.111       .  S
C4449      C4450   1.407       .  A
C4449      C4454   1.404       .  A
C4449      H4456   1.084       .  S
C4450      C4451   1.419       .  A
C4451      C4452   1.403       .  A
C4451      C4458   1.506       .  S
C4452      C4453   1.401       .  A
C4452      H4457   1.085       .  S
C4453      C4454   1.412       .  A
C4454      C4455   1.508       .  S
C4455      H4459   1.111       .  S
C4455      H4460   1.110       .  S
C4455      H4461   1.109       .  S
C4458      H4462   1.110       .  S
C4458      H4463   1.108       .  S
C4458      H4464   1.111       .  S
