geometry optimzed in LAMMPS
_audit_creation_date              2020-11-30 
_audit_creation_method            'lammps2cif' 
_symmetry_space_group_name_H-M    'P1' 
_symmetry_Int_Tables_number       1 
_symmetry_cell_setting            triclinic 
loop_ 
_symmetry_equiv_pos_as_xyz 
  x,y,z 
_cell_length_a                    26.66467931 
_cell_length_b                    29.46094273338419 
_cell_length_c                    29.586853307176195 
_cell_angle_alpha                 89.92878061976596 
_cell_angle_beta                  90.00000044540153 
_cell_angle_gamma                 90.1441142633592 
loop_ 
_atom_site_label 
_atom_site_type_symbol 
_atom_site_fract_x 
_atom_site_fract_y 
_atom_site_fract_z 
_atom_site_charge 
C1          C  0.87916235  0.85888820  0.79610552     0.79900
N2          N  0.83177474  0.87183130  0.80614778    -0.78400
C3          C  0.80776094  0.85506214  0.84287596     0.82400
N4          N  0.83149873  0.82427577  0.86924342    -0.78300
C5          C  0.87882508  0.81068694  0.85965766     0.82400
N6          N  0.90263892  0.82807855  0.82285243    -0.80100
C7          C  0.84597991  0.74108038  0.26940164     0.79900
N8          N  0.80498266  0.72086206  0.28740268    -0.78400
C9          C  0.78082715  0.73884421  0.32331360     0.82400
N10         N  0.79835462  0.77820287  0.34126957    -0.78300
C11         C  0.83919673  0.79969899  0.32353900     0.82400
N12         N  0.86323170  0.78067027  0.28745356    -0.80100
Zr13       Zr  0.03712582  0.44322718  0.01014136     2.17500
O14         O  0.99992554  0.37196432  0.03432853    -0.51600
O15         O  0.09120490  0.41427078  0.95042292    -0.74900
O16         O  0.98035103  0.41466618  0.95259382    -0.81600
O17         O  0.11703662  0.43926364  0.11432945    -0.83400
O18         O  0.94353546  0.47759591  0.92364417    -0.79000
O19         O  0.08609083  0.39359773  0.05902253    -0.90600
O20         O  0.13602500  0.47455274  0.92549725    -0.76600
O21         O  0.04201835  0.50052382  0.95334854    -0.86100
O22         O  0.11203300  0.48487465  0.02455210    -0.85800
O23         O  0.96207826  0.48768293  0.01925082    -0.72500
O24         O  0.02636318  0.47451219  0.08440662    -0.84700
Zr25       Zr  0.03328479  0.61998573  0.04928770     2.26400
Zr26       Zr  0.96869084  0.54565653  0.96302711     2.06300
Zr27       Zr  0.10054979  0.51754428  0.09751591     2.10000
Zr28       Zr  0.11664400  0.54199909  0.96816374     1.78800
O29         O  0.09150994  0.50902939  0.17902010    -0.93500
O30         O  0.11573252  0.56306577  0.88848038    -0.41300
O31         O  0.10842518  0.57578121  0.04129435    -0.77900
O32         O  0.04383723  0.58870093  0.97493635    -0.96600
O33         O  0.95790604  0.57866681  0.03590825    -0.89900
O34         O  0.02807158  0.56366707  0.10686032    -0.92800
C35         C  0.12293151  0.43273073  0.92339363     1.01000
C36         C  0.11081574  0.40046661  0.09566214     1.13900
C37         C  0.95036861  0.43450524  0.92511155     1.04700
O38         O  0.96464546  0.56146186  0.88233950    -0.94900
O39         O  0.95130218  0.62380853  0.94425314    -0.90700
O40         O  0.98749701  0.66875569  0.99759600    -0.83800
C41         C  0.96178025  0.66254734  0.96150684     1.11300
O42         O  0.90964737  0.45168249  0.11210975    -0.96900
Zr43       Zr  0.95381761  0.52159921  0.09262517     1.88900
O44         O  0.97896044  0.64850976  0.10848852    -0.73500
O45         O  0.87749468  0.54757857  0.96759037    -0.52800
O46         O  0.86435468  0.52782356  0.07694894    -0.97500
O47         O  0.96266908  0.50275336  0.17250637    -0.54700
O48         O  0.92919498  0.59049919  0.13209287    -0.74000
C49         C  0.94399645  0.63204684  0.13333555     0.98300
O50         O  0.05413578  0.69913663  0.03372551    -0.62900
O51         O  0.19081374  0.50560180  0.10093077    -0.57700
O52         O  0.10349035  0.64482356  0.09564652    -0.94400
O53         O  0.13591281  0.58376465  0.13225214    -0.92800
O54         O  0.20515583  0.53227177  0.98642981    -0.93100
O55         O  0.16449567  0.60913625  0.94658419    -0.91900
C56         C  0.13389845  0.62625097  0.12371247     1.17100
H57         H  0.14106598  0.46537359  0.02382884     0.33100
H58         H  0.04692086  0.61265458  0.95275506     0.43900
H59         H  0.02824613  0.57682810  0.13673199     0.37500
H60         H  0.93296960  0.46889490  0.01380699     0.33900
H61         H  0.14769859  0.55136616  0.87609878     0.25700
H62         H  0.86615918  0.54529889  0.93580203     0.31700
H63         H  0.85845903  0.56062294  0.07199480     0.37600
H64         H  0.21174822  0.49940429  0.98294209     0.32000
H65         H  0.20554115  0.53229922  0.08546274     0.30900
H66         H  0.12624976  0.50909697  0.19083731     0.32600
H67         H  0.97029931  0.53178478  0.18787754     0.31600
H68         H  0.14852354  0.63431059  0.96335150     0.35600
H69         H  0.06194088  0.71345122  0.06315883     0.28300
H70         H  0.01219906  0.34946391  0.01215929     0.32500
H71         H  0.88557889  0.46010151  0.13614714     0.35400
H72         H  0.19971548  0.50965093  0.13316580     0.28000
H73         H  0.08635804  0.69812412  0.01720118     0.40900
H74         H  0.99431252  0.54604132  0.86947251     0.30900
H75         H  0.08965428  0.54344702  0.87480517     0.38500
H76         H  0.99427884  0.48531519  0.17433290     0.30400
H77         H  0.86778713  0.51815957  0.98125309     0.30400
H78         H  0.96351591  0.37487534  0.02852991     0.30700
C79         C  0.70786805  0.36805259  0.79577219     0.79900
N80         N  0.75602263  0.37881322  0.80543273    -0.78400
C81         C  0.78182048  0.35641107  0.83779755     0.82400
N82         N  0.75844964  0.32263351  0.86092369    -0.78300
C83         C  0.71010506  0.31128163  0.85161329     0.82400
N84         N  0.68466114  0.33445969  0.81923760    -0.80100
Zr85       Zr  0.54100791  0.12372022  0.03615567     2.17500
O86         O  0.50173115  0.19539152  0.01524891    -0.51600
O87         O  0.59865280  0.15637039  0.09122292    -0.74900
O88         O  0.48343092  0.14938582  0.09471436    -0.81600
O89         O  0.62437409  0.12492337  0.93154846    -0.83400
O90         O  0.45100792  0.08735455  0.12991044    -0.79000
O91         O  0.58453492  0.17165476  0.98107880    -0.90600
O92         O  0.65458454  0.10170883  0.11071157    -0.76600
O93         O  0.55082982  0.06954906  0.09524526    -0.86100
O94         O  0.61697417  0.08416771  0.02133127    -0.85800
O95         O  0.46772034  0.07594380  0.03198843    -0.72500
O96         O  0.52881533  0.08839556  0.96390444    -0.84700
Zr97       Zr  0.54428591  0.94454595  0.00514340     2.26400
Zr98       Zr  0.47955530  0.02076403  0.09053720     2.06300
Zr99       Zr  0.60451374  0.04758959  0.95027162     2.10000
Zr100      Zr  0.62631460  0.02993836  0.08003847     1.78800
O101        O  0.58746723  0.05813512  0.87000625    -0.93500
O102        O  0.62844026  0.02371198  0.16224926    -0.41300
O103        O  0.61665552  0.99289278  0.00869323    -0.77900
O104        O  0.55550238  0.98003550  0.07760577    -0.96600
O105        O  0.46808387  0.98368493  0.01979730    -0.89900
O106        O  0.53406707  0.99829134  0.94580787    -0.92800
C107        C  0.63716764  0.14214354  0.11312255     1.01000
C108        C  0.61298457  0.16424759  0.94672944     1.13900
C109        C  0.45558380  0.13032337  0.12475705     1.04700
O110        O  0.48612893  0.00734840  0.17145377    -0.94900
O111        O  0.46367270  0.94276961  0.11065375    -0.90700
O112        O  0.49495129  0.89721303  0.05531562    -0.83800
C113        C  0.47124521  0.90398330  0.09241685     1.11300
O114        O  0.40668642  0.10080854  0.93531252    -0.96900
Zr115      Zr  0.45839509  0.03770319  0.96097754     1.88900
O116        O  0.48729610  0.91069506  0.95025321    -0.73500
O117        O  0.38829669  0.01602300  0.09014787    -0.52800
O118        O  0.37166281  0.02580700  0.98419286    -0.97500
O119        O  0.46087540  0.05137329  0.87968033    -0.54700
O120        O  0.43351309  0.96612223  0.92771499    -0.74000
C121        C  0.44999333  0.92528132  0.92688372     0.98300
O122        O  0.59010498  0.87831167  0.03250475    -0.62900
O123        O  0.69514138  0.05432985  0.94179877    -0.57700
O124        O  0.60330825  0.91609728  0.94928382    -0.94400
O125        O  0.63747393  0.97908263  0.91766789    -0.92800
O126        O  0.71299458  0.02708634  0.05436945    -0.93100
O127        O  0.66924718  0.96390036  0.11077707    -0.91900
C128        C  0.63363897  0.93593870  0.92189822     1.17100
H129        H  0.64542336  0.10449958  0.02014317     0.33100
H130        H  0.55993740  0.95712451  0.10063800     0.43900
H131        H  0.53325311  0.98367383  0.91659549     0.37500
H132        H  0.43786336  0.09353221  0.03763262     0.33900
H133        H  0.61542271  0.05296073  0.17371863     0.25700
H134        H  0.38051734  0.98399616  0.08277580     0.31700
H135        H  0.36356954  0.05193689  0.00386293     0.37600
H136        H  0.72315849  0.05922090  0.05087369     0.32000
H137        H  0.70908821  0.02724191  0.95710105     0.30900
H138        H  0.60546693  0.03330518  0.85446485     0.32600
H139        H  0.47727517  0.02435628  0.86648287     0.31600
H140        H  0.67496173  0.94393612  0.08439123     0.35600
H141        H  0.62588704  0.88594978  0.02766087     0.28300
H142        H  0.50864091  0.21635116  0.04064971     0.32500
H143        H  0.38016589  0.08692712  0.91634146     0.35400
H144        H  0.70158101  0.04917224  0.90924629     0.28000
H145        H  0.58659817  0.87889160  0.06581726     0.40900
H146        H  0.51265143  0.02850877  0.18174428     0.30900
H147        H  0.60177565  0.00150743  0.16974387     0.38500
H148        H  0.48562031  0.07616478  0.87571078     0.30400
H149        H  0.37845824  0.01932294  0.12224190     0.30400
H150        H  0.46516373  0.18958973  0.01654789     0.30700
C151        C  0.21540326  0.20470454  0.25077112     0.79900
N152        N  0.19063350  0.23766935  0.22782232    -0.78400
C153        C  0.21411230  0.26092893  0.19439671     0.82400
N154        N  0.26204787  0.25065769  0.18337765    -0.78300
C155        C  0.28711203  0.21736471  0.20536595     0.82400
N156        N  0.26329615  0.19442927  0.23901942    -0.80100
C157        C  0.35292395  0.82848148  0.78256752     0.79900
N158        N  0.37003960  0.78901839  0.76437629    -0.78400
C159        C  0.35174027  0.77368315  0.72427899     0.82400
N160        N  0.31697875  0.79918149  0.70224551    -0.78300
C161        C  0.29997853  0.83903351  0.71942425     0.82400
N162        N  0.31821598  0.85326710  0.75979146    -0.80100
Zr163      Zr  0.01658807  0.04242735  0.43261101     2.17500
O164        O  0.03573208  0.02923871  0.35324453    -0.51600
O165        O  0.95207912  0.09663383  0.41079612    -0.74900
O166        O  0.96220830  0.98264288  0.39943282    -0.81600
O167        O  0.13074156  0.12268212  0.43777722    -0.83400
O168        O  0.93403323  0.94221245  0.45934829    -0.79000
O169        O  0.07465404  0.08975432  0.39007860    -0.90600
O170        O  0.92580991  0.13436298  0.47304963    -0.76600
O171        O  0.95354915  0.03652170  0.48912812    -0.86100
O172        O  0.02700479  0.10634182  0.48135559    -0.85800
O173        O  0.03402356  0.97187111  0.47016458    -0.72500
O174        O  0.09982236  0.03795184  0.46371638    -0.84700
Zr175      Zr  0.06290320  0.02474403  0.60892400     2.26400
Zr176      Zr  0.97178927  0.96760492  0.52818159     2.06300
Zr177      Zr  0.10886722  0.10097559  0.51388695     2.10000
Zr178      Zr  0.96446196  0.09970984  0.53809094     1.78800
O179        O  0.20004551  0.10133448  0.50851972    -0.93500
O180        O  0.87474466  0.08597881  0.54627510    -0.41300
O181        O  0.04621445  0.09551091  0.57137501    -0.77900
O182        O  0.97963709  0.03067429  0.57826553    -0.96600
O183        O  0.05371825  0.96141451  0.55979896    -0.89900
O184        O  0.12629769  0.03162183  0.55240876    -0.92800
C185        C  0.92577640  0.12735870  0.43038995     1.05400
C186        C  0.11270110  0.11525430  0.39832619     1.13900
C187        C  0.93575839  0.95034061  0.41693267     1.04700
O188        O  0.88159506  0.97234152  0.53920357    -0.94900
O189        O  0.95476157  0.93752676  0.60216411    -0.90700
O190        O  0.00777770  0.97327249  0.65062539    -0.83800
C191        C  0.97175195  0.94546684  0.64182153     1.11300
O192        O  0.13789889  0.93865074  0.42861613    -0.96900
Zr193      Zr  0.11592675  0.96861892  0.50280911     1.88900
O194        O  0.13028239  0.97258736  0.63051109    -0.73500
O195        O  0.97473217  0.88490490  0.52645880    -0.52800
O196        O  0.10264328  0.88675051  0.50166005    -0.97500
O197        O  0.20319093  0.98336312  0.48299662    -0.54700
O198        O  0.16105497  0.93904492  0.56726425    -0.74000
C199        C  0.15985722  0.94473250  0.61020978     0.98300
O200        O  0.04121978  0.04153942  0.68734811    -0.62900
O201        O  0.10502436  0.18363330  0.51200853    -0.57700
O202        O  0.11165377  0.08684773  0.64232410    -0.94400
O203        O  0.13882960  0.13170888  0.58466755    -0.92800
O204        O  0.97766308  0.18092261  0.54765264    -0.93100
O205        O  0.92924602  0.12503167  0.60964426    -0.91900
C206        C  0.13513528  0.12164435  0.62670493     1.17100
H207        H  0.02383179  0.13442845  0.46471845     0.33100
H208        H  0.95496094  0.02863542  0.60207900     0.43900
H209        H  0.15941843  0.03251620  0.56560243     0.37500
H210        H  0.03094880  0.94678941  0.44939200     0.33900
H211        H  0.85898143  0.11601551  0.54153043     0.25700
H212        H  0.93921731  0.87514819  0.52820512     0.31700
H213        H  0.07852783  0.88119125  0.47683316     0.37600
H214        H  0.00494417  0.18347172  0.57020445     0.32000
H215        H  0.13776829  0.19330119  0.49943673     0.30900
H216        H  0.20873746  0.13178412  0.49661392     0.32600
H217        H  0.21907326  0.99408694  0.51128542     0.31600
H218        H  0.95816150  0.12584707  0.63061997     0.35600
H219        H  0.07259424  0.03807754  0.70491513     0.28300
H220        H  0.00379575  0.03430299  0.33695090     0.32500
H221        H  0.16454601  0.91598590  0.43420379     0.35400
H222        H  0.08047026  0.19125199  0.48811927     0.28000
H223        H  0.03332630  0.07436599  0.68837020     0.40900
H224        H  0.86795150  0.94436025  0.52530455     0.30900
H225        H  0.86512024  0.06824460  0.51921558     0.38500
H226        H  0.20199902  0.01062745  0.46341578     0.30400
H227        H  0.98534717  0.87689118  0.49541869     0.30400
H228        H  0.04244960  0.99630633  0.35082010     0.30700
C229        C  0.72395868  0.23816165  0.26413564     0.79900
N230        N  0.70636506  0.27726594  0.28273676    -0.78400
C231        C  0.72685244  0.29404236  0.32145555     0.82400
N232        N  0.76450020  0.27055167  0.34170014    -0.78300
C233        C  0.78265832  0.23140601  0.32370638     0.82400
N234        N  0.76209756  0.21564326  0.28479505    -0.80100
C235        C  0.21638974  0.33449422  0.77489603     0.79900
N236        N  0.25564245  0.35359934  0.75276484    -0.78400
C237        C  0.27721086  0.33316280  0.71668445     0.82400
N238        N  0.25902032  0.29232963  0.70307055    -0.78300
C239        C  0.22002793  0.27200106  0.72500424     0.82400
N240        N  0.19886517  0.29343106  0.76098209    -0.80100
C241        C  0.38008019  0.70272954  0.24543258     0.79900
N242        N  0.40339150  0.73551453  0.22127583    -0.78400
C243        C  0.37988938  0.75498362  0.18571388     0.82400
N244        N  0.33258393  0.74225024  0.17510763    -0.78300
C245        C  0.30855054  0.70968956  0.19932283     0.82400
N246        N  0.33283070  0.68965896  0.23431656    -0.80100
Zr247      Zr  0.51047188  0.52773393  0.60933473     2.17500
O248        O  0.52485685  0.54257704  0.68947635    -0.51600
O249        O  0.44577427  0.47259461  0.63102409    -0.74900
O250        O  0.45867404  0.58981706  0.63936790    -0.81600
O251        O  0.61921637  0.44511254  0.61001141    -0.83400
O252        O  0.43202258  0.63168624  0.57962794    -0.79000
O253        O  0.56811148  0.48516737  0.65648716    -0.90600
O254        O  0.41437697  0.43736481  0.56910595    -0.76600
O255        O  0.44837607  0.53552703  0.55216520    -0.86100
O256        O  0.51728573  0.46208310  0.56254843    -0.85800
O257        O  0.53206417  0.59707208  0.57046085    -0.72500
O258        O  0.59439423  0.52869727  0.57914594    -0.84700
Zr259      Zr  0.55982615  0.53752518  0.43421653     2.26400
Zr260      Zr  0.47073612  0.60292081  0.51165773     2.06300
Zr261      Zr  0.60004628  0.46319650  0.53193522     2.10000
Zr262      Zr  0.45571901  0.47058811  0.50479613     1.78800
O263        O  0.68924349  0.44879889  0.54226582    -0.93500
O264        O  0.36772842  0.49204366  0.49713483    -0.41300
O265        O  0.53859954  0.46893826  0.47331407    -0.77900
O266        O  0.47545612  0.53773928  0.46340815    -0.96600
O267        O  0.55316923  0.60347295  0.48041758    -0.89900
O268        O  0.62200962  0.53073615  0.49155190    -0.92800
C269        C  0.41667193  0.44347937  0.61185779     1.01000
C270        C  0.60377956  0.45695257  0.64936973     1.13900
C271        C  0.43388419  0.62303205  0.62204682     1.04700
O272        O  0.38123647  0.60732751  0.49624933    -0.94900
O273        O  0.46138340  0.63188822  0.43574979    -0.90700
O274        O  0.50736604  0.58674191  0.38911765    -0.83800
C275        C  0.47642842  0.61908912  0.39667088     1.11300
O276        O  0.64703045  0.61710024  0.61209484    -0.96900
Zr277      Zr  0.61432962  0.59636971  0.53798162     1.88900
O278        O  0.62677046  0.58858124  0.41037151    -0.73500
O279        O  0.48129231  0.68510758  0.51244430    -0.52800
O280        O  0.60544570  0.67773250  0.55079408    -0.97500
O281        O  0.70435939  0.58344249  0.54372025    -0.54700
O282        O  0.64811711  0.63220203  0.47063653    -0.74000
C283        C  0.65009517  0.62211459  0.42852771     0.98300
O284        O  0.54284931  0.52076681  0.35480455    -0.62900
O285        O  0.57860739  0.38273490  0.53258611    -0.57700
O286        O  0.60658824  0.47216634  0.40487641    -0.94400
O287        O  0.63975862  0.43393823  0.46442249    -0.92800
O288        O  0.46064162  0.38881049  0.49389923    -0.93100
O289        O  0.42291391  0.44486768  0.43232083    -0.91900
C290        C  0.63363464  0.44036943  0.42193105     1.17100
H291        H  0.51261439  0.43441677  0.57954907     0.33100
H292        H  0.45127655  0.54010571  0.43922052     0.43900
H293        H  0.65515627  0.52833890  0.47856846     0.37500
H294        H  0.53024611  0.62271993  0.59068298     0.33900
H295        H  0.36055887  0.51214695  0.52312816     0.25700
H296        H  0.44734198  0.69735855  0.51819805     0.31700
H297        H  0.59929825  0.69106045  0.52056781     0.37600
H298        H  0.42596971  0.37762711  0.49858016     0.32000
H299        H  0.57782108  0.37363204  0.50038530     0.30900
H300        H  0.69121278  0.41757448  0.55456265     0.32600
H301        H  0.71678046  0.58252580  0.51220651     0.31600
H302        H  0.45302519  0.44027833  0.41328635     0.35600
H303        H  0.57566405  0.51634045  0.33978393     0.28300
H304        H  0.49153215  0.54139499  0.70418496     0.32500
H305        H  0.67224974  0.64117412  0.60645755     0.35400
H306        H  0.60866516  0.36755184  0.54505076     0.28000
H307        H  0.52651057  0.49056013  0.35470904     0.40900
H308        H  0.37556877  0.63930215  0.48728291     0.30900
H309        H  0.36656995  0.51240544  0.47051078     0.38500
H310        H  0.70734234  0.55177251  0.55460367     0.30400
H311        H  0.50028713  0.69161688  0.54044760     0.30400
H312        H  0.53552856  0.57473743  0.69136704     0.30700
C313        C  0.45458069  0.64148221  0.35725791    -0.00500
C314        C  0.43283363  0.61408074  0.32384079    -0.12300
C315        C  0.40845793  0.63354203  0.28697284     0.01800
C316        C  0.40639670  0.68109836  0.28305217    -0.00600
C317        C  0.43002930  0.70855765  0.31541118    -0.12300
C318        C  0.45358917  0.68911057  0.35285440     0.01600
H319        H  0.43391881  0.57740670  0.32712086     0.14600
H320        H  0.42909072  0.74520911  0.31190454     0.14600
C321        C  0.47733868  0.71851852  0.38557753     0.36300
C322        C  0.38667326  0.60429618  0.25305409     0.36200
N323        N  0.49642746  0.74221612  0.41162086    -0.44100
N324        N  0.36884550  0.58161730  0.22545216    -0.44100
C325        C  0.31689742  0.35798470  0.69065034    -0.00500
C326        C  0.33578226  0.39885997  0.70872674    -0.12300
C327        C  0.36806039  0.42706393  0.68408555     0.01800
C328        C  0.38387853  0.41416510  0.64045602    -0.00600
C329        C  0.36696189  0.37238887  0.62299379    -0.12300
C330        C  0.33378110  0.34450497  0.64724130     0.01600
H331        H  0.32411458  0.40993045  0.74200581     0.14600
H332        H  0.37915792  0.36156956  0.58973214     0.14600
C333        C  0.31701085  0.30327517  0.62553253     0.36300
C334        C  0.38140071  0.47040403  0.70346014     0.36200
N335        N  0.30385072  0.27045896  0.60756704    -0.44100
N336        N  0.39176266  0.50533308  0.71872670    -0.44100
C337        C  0.70578947  0.33570160  0.34331591    -0.00500
C338        C  0.65595178  0.34830192  0.33392338    -0.12300
C339        C  0.63237769  0.38366048  0.35752906     0.01800
C340        C  0.65882590  0.40775070  0.39120199    -0.00600
C341        C  0.70929000  0.39695569  0.39901539    -0.12300
C342        C  0.73302681  0.36180978  0.37531858     0.01600
H343        H  0.63435428  0.32918556  0.30946133     0.14600
H344        H  0.73012668  0.41571649  0.42439310     0.14600
C345        C  0.78551661  0.35411611  0.38445754     0.36300
C346        C  0.57983517  0.39179070  0.34911772     0.36200
N347        N  0.82764920  0.34852955  0.39197280    -0.44100
N348        N  0.53761007  0.39769117  0.34233826    -0.44100
C349        C  0.19894597  0.22866680  0.70679383    -0.00500
C350        C  0.22929731  0.20267887  0.67783102    -0.12300
C351        C  0.20969810  0.16613997  0.65339198     0.01800
C352        C  0.15905868  0.15362925  0.65862871    -0.00600
C353        C  0.12941299  0.17689957  0.69016028    -0.12300
C354        C  0.14861118  0.21444043  0.71394866     0.01600
H355        H  0.26829151  0.21185083  0.67289031     0.14600
H356        H  0.09025017  0.16759982  0.69402119     0.14600
C357        C  0.11465488  0.23914093  0.74288479     0.36300
C358        C  0.24192798  0.14265528  0.62198135     0.36200
N359        N  0.08744486  0.25899174  0.76602418    -0.44100
N360        N  0.26744134  0.12376649  0.59661326    -0.44100
C361        C  0.89248011  0.15610059  0.40195741    -0.00500
C362        C  0.87695422  0.13960461  0.35974151    -0.12300
C363        C  0.84243039  0.16334003  0.33301264     0.01800
C364        C  0.82256156  0.20537684  0.34823389    -0.00600
C365        C  0.84013805  0.22269082  0.38966904    -0.12300
C366        C  0.87444232  0.19885717  0.41636804     0.01600
H367        H  0.89070207  0.10707293  0.34794706     0.14600
H368        H  0.82636890  0.25487544  0.40213653     0.14600
C369        C  0.89028638  0.21973368  0.45820468     0.36300
C370        C  0.82803493  0.14225993  0.29095044     0.36200
N371        N  0.90256839  0.23673361  0.49168238    -0.44100
N372        N  0.81748146  0.12403114  0.25764138    -0.44100
C373        C  0.19521452  0.91731929  0.63811889    -0.00500
C374        C  0.21312695  0.93512086  0.67908020    -0.12300
C375        C  0.24727457  0.91100374  0.70606780     0.01800
C376        C  0.26345141  0.86704247  0.69287292    -0.00600
C377        C  0.24504305  0.84932684  0.65192837    -0.12300
C378        C  0.21194688  0.87383644  0.62457018     0.01600
H379        H  0.20133878  0.96869593  0.68962584     0.14600
H380        H  0.25667431  0.81595386  0.64069643     0.14600
C381        C  0.19541755  0.85264873  0.58314621     0.36300
C382        C  0.26587363  0.93348138  0.74604038     0.36200
N383        N  0.18276734  0.83536996  0.54993192    -0.44100
N384        N  0.28084172  0.95212286  0.77771756    -0.44100
C385        C  0.37048059  0.73086533  0.70268265    -0.00500
C386        C  0.34642760  0.71586521  0.66306339    -0.12300
C387        C  0.36432303  0.67898818  0.63825348     0.01800
C388        C  0.40791245  0.65576131  0.65238278    -0.00600
C389        C  0.43026784  0.66842813  0.69354363    -0.12300
C390        C  0.41198420  0.70537435  0.71880725     0.01600
H391        H  0.31354252  0.73344553  0.65057783     0.14600
H392        H  0.46352291  0.65071982  0.70507032     0.14600
C393        C  0.43731893  0.71638675  0.76051023     0.36300
C394        C  0.33672712  0.66595552  0.59828795     0.36200
N395        N  0.45737521  0.72495815  0.79414238    -0.44100
N396        N  0.31403115  0.65598004  0.56646718    -0.44100
C397        C  0.13826285  0.13737513  0.35977760    -0.00500
C398        C  0.19035011  0.14432149  0.36219133    -0.12300
C399        C  0.21640334  0.16534917  0.32688247     0.01800
C400        C  0.19012348  0.18036145  0.28818961    -0.00600
C401        C  0.13802732  0.17354230  0.28584330    -0.12300
C402        C  0.11197302  0.15239729  0.32111388     0.01600
H403        H  0.21094275  0.13310917  0.39178176     0.14600
H404        H  0.11740797  0.18510349  0.25641350     0.14600
C405        C  0.05802476  0.14905693  0.31771011     0.36300
C406        C  0.26978028  0.17217291  0.33199387     0.36200
N407        N  0.01478795  0.14672702  0.31503664    -0.44100
N408        N  0.31259331  0.17754238  0.33573440    -0.44100
C409        C  0.45072285  0.86442919  0.11594241    -0.00500
C410        C  0.42289351  0.83259487  0.09126120    -0.12300
C411        C  0.39994679  0.79597421  0.11303101     0.01800
C412        C  0.40488873  0.79125310  0.16034506    -0.00600
C413        C  0.43427117  0.82225259  0.18461662    -0.12300
C414        C  0.45726585  0.85864127  0.16286790     0.01600
H415        H  0.41850723  0.83674538  0.05503059     0.14600
H416        H  0.43878579  0.81840202  0.22087030     0.14600
C417        C  0.48881361  0.88846488  0.18923806     0.36300
C418        C  0.37350270  0.76305129  0.08575836     0.36200
N419        N  0.51437654  0.91192030  0.21056543    -0.44100
N420        N  0.35280915  0.73671711  0.06348637    -0.44100
C421        C  0.66121277  0.17305134  0.14623738    -0.00500
C422        C  0.63027375  0.19927941  0.17432891    -0.12300
C423        C  0.64969252  0.22152369  0.21243277     0.01800
C424        C  0.70157871  0.21904987  0.22218808    -0.00600
C425        C  0.73284134  0.19494030  0.19250921    -0.12300
C426        C  0.71323856  0.17171641  0.15520257     0.01600
H427        H  0.59011036  0.19969853  0.16843616     0.14600
H428        H  0.77278772  0.19317817  0.19915791     0.14600
C429        C  0.74733741  0.14582389  0.12748340     0.36300
C430        C  0.61461316  0.24272929  0.24292936     0.36200
N431        N  0.77487240  0.12486743  0.10569170    -0.44100
N432        N  0.58597247  0.25912568  0.26729881    -0.44100
C433        C  0.37588645  0.84721913  0.82416435    -0.00500
C434        C  0.42798233  0.84360976  0.82983715    -0.12300
C435        C  0.45267673  0.86670958  0.86470552     0.01800
C436        C  0.42500415  0.89403521  0.89488380    -0.00600
C437        C  0.37256859  0.89575860  0.89064639    -0.12300
C438        C  0.34785042  0.87230052  0.85601508     0.01600
H439        H  0.44993305  0.82472501  0.80543344     0.14600
H440        H  0.35092420  0.91623881  0.91399946     0.14600
C441        C  0.29374618  0.87407138  0.85434164     0.36300
C442        C  0.50674406  0.86466506  0.86621244     0.36200
N443        N  0.25038185  0.87536013  0.85320865    -0.44100
N444        N  0.55007517  0.86281100  0.86698737    -0.44100
C445        C  0.42264027  0.15940312  0.15259635    -0.00500
C446        C  0.40376418  0.19916930  0.13305025    -0.12300
C447        C  0.36185147  0.22096742  0.15113801     0.01800
C448        C  0.33793960  0.20289515  0.19015276    -0.00600
C449        C  0.36125708  0.16664420  0.21290806    -0.12300
C450        C  0.40304405  0.14482428  0.19455617     0.01600
H451        H  0.41926918  0.21139828  0.10137575     0.14600
H452        H  0.34531551  0.15342150  0.24396154     0.14600
C453        C  0.42368020  0.10655056  0.21874922     0.36300
C454        C  0.34348609  0.26004399  0.12678426     0.36200
N455        N  0.43992782  0.07586688  0.23827416    -0.44100
N456        N  0.32961526  0.29119578  0.10650297    -0.44100
C457        C  0.68551018  0.27366856  0.87618310    -0.00500
C458        C  0.63429240  0.27698288  0.88685824    -0.12300
C459        C  0.60968299  0.24217469  0.91041859     0.01800
C460        C  0.63651165  0.20304153  0.92330966    -0.00600
C461        C  0.68740512  0.19936540  0.91170493    -0.12300
C462        C  0.71206084  0.23416719  0.88856546     0.01600
H463        H  0.61345707  0.30696536  0.87695144     0.14600
H464        H  0.70811852  0.16905465  0.92087085     0.14600
C465        C  0.76406843  0.22765101  0.87648444     0.36300
C466        C  0.55661583  0.24665106  0.91886308     0.36200
N467        N  0.80573444  0.22291912  0.86662981    -0.44100
N468        N  0.51401887  0.25069400  0.92511209    -0.44100
C469        C  0.68177163  0.39212860  0.75905849    -0.00500
C470        C  0.63151377  0.40477072  0.76479636    -0.12300
C471        C  0.60550397  0.42731427  0.73031366     0.01800
C472        C  0.62984396  0.43671167  0.68876963    -0.00600
C473        C  0.68046073  0.42465652  0.68366083    -0.12300
C474        C  0.70648515  0.40271752  0.71819195     0.01600
H475        H  0.61255514  0.39708270  0.79634991     0.14600
H476        H  0.69984006  0.43203618  0.65225053     0.14600
C477        C  0.75790712  0.38969460  0.70990682     0.36300
C478        C  0.55356962  0.43866274  0.73810472     0.36200
N479        N  0.79917405  0.37930080  0.70373135    -0.44100
N480        N  0.51198272  0.44770835  0.74462793    -0.44100
C481        C  0.17181488  0.65470151  0.14592078    -0.00500
C482        C  0.18498280  0.64503853  0.19080943    -0.12300
C483        C  0.22767669  0.66439585  0.21039420     0.01800
C484        C  0.25844172  0.69373832  0.18436665    -0.00600
C485        C  0.24265030  0.70588958  0.14063266    -0.12300
C486        C  0.20021660  0.68647900  0.12117338     0.01600
H487        H  0.16272206  0.62098990  0.21013056     0.14600
H488        H  0.26504935  0.72872727  0.12013708     0.14600
C489        C  0.19017078  0.69634662  0.07421524     0.36300
C490        C  0.23848846  0.65299376  0.25687382     0.36200
N491        N  0.18296806  0.70428311  0.03646909    -0.44100
N492        N  0.24632288  0.64357440  0.29420125    -0.44100
C493        C  0.19147501  0.35957092  0.81229824    -0.00500
C494        C  0.16413615  0.33548008  0.84520451    -0.12300
C495        C  0.14067537  0.35790084  0.88137473     0.01800
C496        C  0.14554227  0.40561970  0.88591077    -0.00600
C497        C  0.17174356  0.42951251  0.85206285    -0.12300
C498        C  0.19377130  0.40746128  0.81549564     0.01600
H499        H  0.16100804  0.29885828  0.84273560     0.14600
H500        H  0.17438520  0.46622827  0.85333029     0.14600
C501        C  0.21611342  0.43576641  0.78093143     0.36300
C502        C  0.11131260  0.33079782  0.91231010     0.36200
N503        N  0.23353329  0.45896009  0.75346906    -0.44100
N504        N  0.08739575  0.30862880  0.93643757    -0.44100
C505        C  0.18757486  0.29636760  0.16912530    -0.00500
C506        C  0.14028783  0.28671618  0.15062595    -0.12300
C507        C  0.11475709  0.31920982  0.12481788     0.01800
C508        C  0.13660005  0.36241638  0.11808825    -0.00600
C509        C  0.18409560  0.37160385  0.13653718    -0.12300
C510        C  0.20953719  0.33923790  0.16191375     0.01600
H511        H  0.12351149  0.25356310  0.15603665     0.14600
H512        H  0.20127274  0.40468409  0.13161977     0.14600
C513        C  0.25694433  0.35182579  0.18200854     0.36300
C514        C  0.06588327  0.30753810  0.10739214     0.36200
N515        N  0.29477386  0.36227540  0.19814976    -0.44100
N516        N  0.02681728  0.29694364  0.09396776    -0.44100
C517        C  0.91861668  0.40725491  0.89410631    -0.00500
C518        C  0.89628802  0.43027373  0.85779508    -0.12300
C519        C  0.85420825  0.41290678  0.83596911     0.01800
C520        C  0.83330932  0.37108429  0.85052257    -0.00600
C521        C  0.86059052  0.34475694  0.88166014    -0.12300
C522        C  0.90322844  0.36220657  0.90323451     0.01600
H523        H  0.90968595  0.46376808  0.84827049     0.14600
H524        H  0.84714322  0.31132114  0.89115598     0.14600
C525        C  0.92821527  0.33355405  0.93568548     0.36300
C526        C  0.83240215  0.44091522  0.80105853     0.36200
N527        N  0.94757202  0.30918880  0.96088857    -0.44100
N528        N  0.81577184  0.46406533  0.77323869    -0.44100
C529        C  0.87516515  0.71531118  0.23562197    -0.00500
C530        C  0.88798324  0.73491285  0.19395301    -0.12300
C531        C  0.91096445  0.70881485  0.15998199     0.01800
C532        C  0.92061249  0.66211350  0.16749657    -0.00600
C533        C  0.90895378  0.64323197  0.20969247    -0.12300
C534        C  0.88724020  0.66932312  0.24371552     0.01600
H535        H  0.87887668  0.77019330  0.18753533     0.14600
H536        H  0.91782417  0.60795905  0.21653764     0.14600
C537        C  0.87990372  0.64837037  0.28742228     0.36300
C538        C  0.92248627  0.73039001  0.11738748     0.36200
N539        N  0.87479024  0.63140094  0.32242248    -0.44100
N540        N  0.93183888  0.74789466  0.08336941    -0.44100
C541        C  0.85985037  0.84134661  0.34590385    -0.00500
C542        C  0.89213182  0.87057546  0.32169650    -0.12300
C543        C  0.91536829  0.90823798  0.34248456     0.01800
C544        C  0.90603100  0.91775053  0.38858226    -0.00600
C545        C  0.87088515  0.89029706  0.41145966    -0.12300
C546        C  0.84937124  0.85205243  0.39160559     0.01600
H547        H  0.90026577  0.86343156  0.28651443     0.14600
H548        H  0.86200049  0.89702710  0.44660660     0.14600
C549        C  0.82069296  0.82288128  0.42126644     0.36300
C550        C  0.94951893  0.93505543  0.31571403     0.36200
N551        N  0.79873440  0.80018759  0.44640148    -0.44100
N552        N  0.97645850  0.95586849  0.29305319    -0.44100
C553        C  0.74232823  0.71086825  0.34713222    -0.00500
C554        C  0.74191377  0.66368893  0.33925608    -0.12300
C555        C  0.71197484  0.63430912  0.36480089     0.01800
C556        C  0.68091557  0.65185484  0.39910212    -0.00600
C557        C  0.67946967  0.69908337  0.40586478    -0.12300
C558        C  0.70919235  0.72863690  0.37993771     0.01600
H559        H  0.76668397  0.64904450  0.31419360     0.14600
H560        H  0.65467912  0.71300939  0.43137361     0.14600
C561        C  0.70366757  0.77685270  0.38694542     0.36300
C562        C  0.71668658  0.58612235  0.35694532     0.36200
N563        N  0.69902489  0.81550306  0.39248348    -0.44100
N564        N  0.72105817  0.54760953  0.35042121    -0.44100
C565        C  0.90318084  0.77568369  0.88793367    -0.00500
C566        C  0.93738712  0.74602837  0.86735957    -0.12300
C567        C  0.95754840  0.70952098  0.89128366     0.01800
C568        C  0.94423694  0.70267124  0.93685044    -0.00600
C569        C  0.91218859  0.73336400  0.95830648    -0.12300
C570        C  0.89116134  0.76952638  0.93424640     0.01600
H571        H  0.94714868  0.75035097  0.83202644     0.14600
H572        H  0.90215298  0.72807878  0.99344099     0.14600
C573        C  0.85715286  0.79927603  0.95797664     0.36300
C574        C  0.99211804  0.67956182  0.86853358     0.36200
N575        N  0.82955353  0.82289382  0.97681701    -0.44100
N576        N  0.01991221  0.65543864  0.85061100    -0.44100
C577        C  0.75765260  0.87214533  0.85622653    -0.00500
C578        C  0.72950634  0.84723848  0.88798346    -0.12300
C579        C  0.68578120  0.86500019  0.90714163     0.01800
C580        C  0.66961426  0.90894119  0.89469975    -0.00600
C581        C  0.69480042  0.93147223  0.85935421    -0.12300
C582        C  0.73872201  0.91416461  0.84071465     0.01600
H583        H  0.74260303  0.81427114  0.89921614     0.14600
H584        H  0.68212467  0.96459799  0.84814944     0.14600
C585        C  0.76527014  0.94257321  0.80876813     0.36300
C586        C  0.65999821  0.83768906  0.94038022     0.36200
N587        N  0.78682629  0.96537218  0.78343800    -0.44100
N588        N  0.63974794  0.81479655  0.96646979    -0.44100
C589        C  0.90437466  0.87894715  0.75643301    -0.00500
C590        C  0.87570999  0.88719203  0.71760664    -0.12300
C591        C  0.89676070  0.90790612  0.67959959     0.01800
C592        C  0.94781822  0.92147402  0.68021987    -0.00600
C593        C  0.97639149  0.91324069  0.71925389    -0.12300
C594        C  0.95522851  0.89218628  0.75712714     0.01600
H595        H  0.83642665  0.87746177  0.71698693     0.14600
H596        H  0.01544864  0.92356168  0.72037608     0.14600
C597        C  0.98585393  0.88690564  0.79697893     0.36300
C598        C  0.86398376  0.91592619  0.64157297     0.36200
N599        N  0.01037166  0.88280607  0.82898262    -0.44100
N600        N  0.83661219  0.92165289  0.61177701    -0.44100
loop_ 
_geom_bond_atom_site_label_1 
_geom_bond_atom_site_label_2 
_geom_bond_distance 
_geom_bond_site_symmetry_2 
_ccdc_geom_bond_type 
C1            N2   1.354       .  A
C1            N6   1.358       .  A
C1          C589   1.475       .  S
N2            C3   1.354       .  A
C3            N4   1.354       .  A
C3          C577   1.483       .  S
N4            C5   1.355       .  A
C5            N6   1.360       .  A
C5          C565   1.479       .  S
C7            N8   1.353       .  A
C7           N12   1.362       .  A
C7          C529   1.478       .  S
N8            C9   1.352       .  A
C9           N10   1.358       .  A
C9          C553   1.491       .  S
N10          C11   1.363       .  A
C11          N12   1.367       .  A
C11         C541   1.498       .  S
Zr13         O14   2.427   1_455  S
Zr13         O15   2.437   1_554  S
Zr13         O16   2.428   1_454  S
Zr13         O19   2.437       .  S
Zr13         O21   2.384   1_554  S
Zr13         O22   2.380       .  S
Zr13         O23   2.410   1_455  S
Zr13         O24   2.401       .  S
O14          H70   0.989   1_655  S
O14          H78   0.990       .  S
O15          C35   1.284       .  A
O16          C37   1.282       .  A
O17         Zr27   2.400       .  S
O17          C36   1.280       .  A
O18         Zr26   2.414       .  S
O18          C37   1.284       .  A
O19          C36   1.285       .  A
O20         Zr28   2.413       .  S
O20          C35   1.281       .  A
O21         Zr26   2.385   1_455  S
O21         Zr28   2.374       .  S
O22         Zr27   2.385       .  S
O22         Zr28   2.371   1_554  S
O22          H57   0.965       .  S
O23         Zr26   2.389   1_554  S
O23         Zr43   2.401       .  S
O23          H60   0.966       .  S
O24         Zr27   2.379       .  S
O24         Zr43   2.396   1_455  S
Zr25         O50   2.439       .  S
Zr25         O44   2.425   1_455  S
Zr25         O52   2.432       .  S
Zr25         O40   2.428   1_454  S
Zr25         O31   2.404       .  S
Zr25         O32   2.403   1_554  S
Zr25         O33   2.381   1_455  S
Zr25         O34   2.380       .  S
Zr26         O45   2.436       .  S
Zr26         O38   2.434       .  S
Zr26         O39   2.414       .  S
Zr26         O32   2.395   1_655  S
Zr26         O33   2.384   1_556  S
Zr27         O29   2.436       .  S
Zr27         O51   2.435       .  S
Zr27         O53   2.397       .  S
Zr27         O31   2.397       .  S
Zr27         O34   2.382       .  S
Zr28         O54   2.439       .  S
Zr28         O55   2.436       .  S
Zr28         O30   2.437       .  S
Zr28         O31   2.393   1_556  S
Zr28         O32   2.391       .  S
O29          H66   0.990       .  S
O30          H61   0.991       .  S
O30          H75   0.990       .  S
O32          H58   0.966       .  S
O33         Zr43   2.376       .  S
O34         Zr43   2.371   1_455  S
O34          H59   0.966       .  S
C35         C496   1.495       .  S
C36         C508   1.474       .  S
C37         C517   1.484       .  S
O38          H74   0.990       .  S
O39          C41   1.281       .  A
O40          C41   1.282       .  A
C41         C568   1.466       .  S
O42         Zr43   2.439       .  S
O42          H71   0.990       .  S
Zr43         O46   2.437       .  S
Zr43         O47   2.439       .  S
Zr43         O48   2.435       .  S
O44          C49   1.281       .  A
O45          H62   0.990       .  S
O45          H77   0.990       .  S
O46          H63   0.990       .  S
O47          H67   0.990       .  S
O47          H76   0.990       .  S
O48          C49   1.286       .  A
C49         C532   1.483       .  S
O50          H69   0.990       .  S
O50          H73   0.989       .  S
O51          H65   0.990       .  S
O51          H72   0.990       .  S
O52          C56   1.284       .  A
O53          C56   1.278       .  A
O54          H64   0.990       .  S
O55          H68   0.990       .  S
C56         C481   1.468       .  S
C79          N80   1.352       .  A
C79          N84   1.356       .  A
C79         C469   1.472       .  S
N80          C81   1.351       .  A
C81          N82   1.357       .  A
C81         C520   1.487       .  S
N82          C83   1.359       .  A
C83          N84   1.358       .  A
C83         C457   1.477       .  S
Zr85         O86   2.438       .  S
Zr85         O87   2.437       .  S
Zr85         O88   2.437       .  S
Zr85         O91   2.446   1_554  S
Zr85         O93   2.381       .  S
Zr85         O94   2.380       .  S
Zr85         O95   2.409       .  S
Zr85         O96   2.400   1_554  S
O86         H142   0.990       .  S
O86         H150   0.990       .  S
O87         C107   1.285       .  A
O88         C109   1.286       .  A
O89         Zr99   2.402       .  S
O89         C108   1.280       .  A
O90         Zr98   2.408       .  S
O90         C109   1.280       .  A
O91         C108   1.287       .  A
O92        Zr100   2.421       .  S
O92         C107   1.282       .  A
O93         Zr98   2.384       .  S
O93        Zr100   2.372       .  S
O94         Zr99   2.387   1_554  S
O94        Zr100   2.372       .  S
O94         H129   0.966       .  S
O95         Zr98   2.396       .  S
O95        Zr115   2.398   1_554  S
O95         H132   0.966       .  S
O96         Zr99   2.387       .  S
O96        Zr115   2.398       .  S
Zr97        O122   2.442       .  S
Zr97        O116   2.437   1_554  S
Zr97        O124   2.433   1_554  S
Zr97        O112   2.422       .  S
Zr97        O103   2.398       .  S
Zr97        O104   2.405       .  S
Zr97        O105   2.379       .  S
Zr97        O106   2.379   1_554  S
Zr98        O117   2.437       .  S
Zr98        O110   2.432       .  S
Zr98        O111   2.409   1_545  S
Zr98        O104   2.388   1_545  S
Zr98        O105   2.381   1_545  S
Zr99        O101   2.438       .  S
Zr99        O123   2.437       .  S
Zr99        O125   2.406   1_545  S
Zr99        O103   2.384   1_546  S
Zr99        O106   2.375   1_545  S
Zr100       O126   2.435       .  S
Zr100       O127   2.435   1_545  S
Zr100       O102   2.440       .  S
Zr100       O103   2.391   1_545  S
Zr100       O104   2.391   1_545  S
O101        H138   0.990       .  S
O102        H133   0.990       .  S
O102        H147   0.990       .  S
O104        H130   0.966       .  S
O105       Zr115   2.371   1_564  S
O106       Zr115   2.374   1_565  S
O106        H131   0.966       .  S
C107        C421   1.483       .  S
C108        C460   1.475       .  S
C109        C445   1.480       .  S
O110        H146   0.990       .  S
O111        C113   1.281       .  A
O112        C113   1.283       .  A
C113        C409   1.462       .  S
O114       Zr115   2.438       .  S
O114        H143   0.991       .  S
Zr115       O118   2.437       .  S
Zr115       O119   2.439       .  S
Zr115       O120   2.420   1_545  S
O116        C121   1.286       .  A
O117        H134   0.990   1_545  S
O117        H149   0.990       .  S
O118        H135   0.990   1_556  S
O119        H139   0.990       .  S
O119        H148   0.990       .  S
O120        C121   1.282       .  A
C121        C436   1.479       .  S
O122        H141   0.990       .  S
O122        H145   0.990       .  S
O123        H137   0.990       .  S
O123        H144   0.990       .  S
O124        C128   1.284       .  A
O125        C128   1.281       .  A
O126        H136   0.989       .  S
O127        H140   0.990       .  S
C128        C580   1.485       .  S
C151        N152   1.357       .  A
C151        N156   1.359       .  A
C151        C400   1.480       .  S
N152        C153   1.355       .  A
C153        N154   1.354       .  A
C153        C505   1.467       .  S
N154        C155   1.354       .  A
C155        N156   1.359       .  A
C155        C448   1.491       .  S
C157        N158   1.362       .  A
C157        N162   1.359       .  A
C157        C433   1.481       .  S
N158        C159   1.360       .  A
C159        N160   1.360       .  A
C159        C385   1.501       .  S
N160        C161   1.359       .  A
C161        N162   1.356       .  A
C161        C376   1.500       .  S
Zr163       O164   2.435       .  S
Zr163       O165   2.437   1_455  S
Zr163       O166   2.482   1_445  S
Zr163       O169   2.431       .  S
Zr163       O171   2.377   1_455  S
Zr163       O172   2.389       .  S
Zr163       O173   2.402   1_545  S
Zr163       O174   2.407       .  S
O164        H220   0.990       .  S
O164        H228   0.990   1_545  S
O165        C185   1.285       .  A
O166        C187   1.291       .  A
O167       Zr177   2.411       .  S
O167        C186   1.281       .  A
O168       Zr176   2.392       .  S
O168        C187   1.278       .  A
O169        C186   1.284       .  A
O170       Zr178   2.410       .  S
O170        C185   1.279       .  A
O171       Zr176   2.386   1_545  S
O171       Zr178   2.378       .  S
O172       Zr177   2.391       .  S
O172       Zr178   2.374   1_455  S
O172        H207   0.966       .  S
O173       Zr176   2.391   1_455  S
O173       Zr193   2.390       .  S
O173        H210   0.965       .  S
O174       Zr177   2.390       .  S
O174       Zr193   2.386   1_545  S
Zr175       O200   2.443       .  S
Zr175       O194   2.451   1_545  S
Zr175       O202   2.451       .  S
Zr175       O190   2.443   1_545  S
Zr175       O181   2.404       .  S
Zr175       O182   2.405   1_455  S
Zr175       O183   2.379   1_545  S
Zr175       O184   2.386       .  S
Zr176       O195   2.438       .  S
Zr176       O188   2.431       .  S
Zr176       O189   2.403       .  S
Zr176       O182   2.387   1_565  S
Zr176       O183   2.384   1_655  S
Zr177       O179   2.436       .  S
Zr177       O201   2.438       .  S
Zr177       O203   2.418       .  S
Zr177       O181   2.389       .  S
Zr177       O184   2.385       .  S
Zr178       O204   2.434       .  S
Zr178       O205   2.435       .  S
Zr178       O180   2.437       .  S
Zr178       O181   2.395   1_655  S
Zr178       O182   2.390       .  S
O179        H216   0.990       .  S
O180        H211   0.990       .  S
O180        H225   0.990       .  S
O182        H208   0.966       .  S
O183       Zr193   2.374       .  S
O184       Zr193   2.383   1_545  S
O184        H209   0.966       .  S
C185        C361   1.488       .  S
C186        C397   1.479       .  S
C187        C544   1.501       .  S
O188        H224   0.990       .  S
O189        C191   1.279       .  A
O190        C191   1.288   1_455  A
C191        C592   1.481       .  S
O192       Zr193   2.439       .  S
O192        H221   0.990       .  S
Zr193       O196   2.437       .  S
Zr193       O197   2.437       .  S
Zr193       O198   2.418       .  S
O194        C199   1.289       .  A
O195        H212   0.990       .  S
O195        H227   0.990       .  S
O196        H213   0.990       .  S
O197        H217   0.990       .  S
O197        H226   0.990   1_565  S
O198        C199   1.282       .  A
C199        C373   1.492       .  S
O200        H219   0.990       .  S
O200        H223   0.991       .  S
O201        H215   0.990       .  S
O201        H222   0.989       .  S
O202        C206   1.285       .  A
O203        C206   1.282       .  A
O204        H214   0.990   1_655  S
O205        H218   0.990       .  S
C206        C352   1.479       .  S
C229        N230   1.362       .  A
C229        N234   1.360       .  A
C229        C424   1.488       .  S
N230        C231   1.362       .  A
C231        N232   1.359       .  A
C231        C337   1.499       .  S
N232        C233   1.361       .  A
C233        N234   1.357       .  A
C233        C364   1.500       .  S
C235        N236   1.355       .  A
C235        N240   1.360       .  A
C235        C493   1.489       .  S
N236        C237   1.355       .  A
C237        N238   1.358       .  A
C237        C325   1.498       .  S
N238        C239   1.363       .  A
C239        N240   1.361       .  A
C239        C349   1.495       .  S
C241        N242   1.351       .  A
C241        N246   1.357       .  A
C241        C316   1.462       .  S
N242        C243   1.352       .  A
C243        N244   1.352       .  A
C243        C412   1.464       .  S
N244        C245   1.356       .  A
C245        N246   1.356       .  A
C245        C484   1.483       .  S
Zr247       O248   2.442       .  S
Zr247       O249   2.452       .  S
Zr247       O250   2.462       .  S
Zr247       O253   2.426       .  S
Zr247       O255   2.378       .  S
Zr247       O256   2.387       .  S
Zr247       O257   2.412       .  S
Zr247       O258   2.410       .  S
O248        H304   0.990       .  S
O248        H312   0.990       .  S
O249        C269   1.287       .  A
O250        C271   1.288       .  A
O251       Zr261   2.425       .  S
O251        C270   1.284       .  A
O252       Zr260   2.416       .  S
O252        C271   1.281       .  A
O253        C270   1.282       .  A
O254       Zr262   2.405       .  S
O254        C269   1.279       .  A
O255       Zr260   2.392       .  S
O255       Zr262   2.381       .  S
O256       Zr261   2.386       .  S
O256       Zr262   2.383       .  S
O256        H291   0.965       .  S
O257       Zr260   2.394       .  S
O257       Zr277   2.395       .  S
O257        H294   0.966       .  S
O258       Zr261   2.389       .  S
O258       Zr277   2.394       .  S
Zr259       O284   2.444       .  S
Zr259       O278   2.435       .  S
Zr259       O286   2.456       .  S
Zr259       O274   2.418       .  S
Zr259       O265   2.394       .  S
Zr259       O266   2.410       .  S
Zr259       O267   2.384       .  S
Zr259       O268   2.381       .  S
Zr260       O279   2.437       .  S
Zr260       O272   2.433       .  S
Zr260       O273   2.415       .  S
Zr260       O266   2.398       .  S
Zr260       O267   2.384       .  S
Zr261       O263   2.436       .  S
Zr261       O285   2.437       .  S
Zr261       O287   2.421       .  S
Zr261       O265   2.392       .  S
Zr261       O268   2.391       .  S
Zr262       O288   2.435       .  S
Zr262       O289   2.437       .  S
Zr262       O264   2.442       .  S
Zr262       O265   2.399       .  S
Zr262       O266   2.383       .  S
O263        H300   0.990       .  S
O264        H295   0.990       .  S
O264        H309   0.990       .  S
O266        H292   0.966       .  S
O267       Zr277   2.367       .  S
O268       Zr277   2.383       .  S
O268        H293   0.966       .  S
C269        C328   1.490       .  S
C270        C472   1.483       .  S
C271        C388   1.490       .  S
O272        H308   0.990       .  S
O273        C275   1.281       .  A
O274        C275   1.282       .  A
C275        C313   1.461       .  S
O276       Zr277   2.438       .  S
O276        H305   0.990       .  S
Zr277       O280   2.439       .  S
Zr277       O281   2.437       .  S
Zr277       O282   2.426       .  S
O278        C283   1.284       .  A
O279        H296   0.990       .  S
O279        H311   0.990       .  S
O280        H297   0.990       .  S
O281        H301   0.990       .  S
O281        H310   0.990       .  S
O282        C283   1.282       .  A
C283        C556   1.482       .  S
O284        H303   0.990       .  S
O284        H307   0.990       .  S
O285        H299   0.990       .  S
O285        H306   0.990       .  S
O286        C290   1.286       .  A
O287        C290   1.282       .  A
O288        H298   0.990       .  S
O289        H302   0.990       .  S
C290        C340   1.485       .  S
C313        C314   1.402       .  A
C313        C318   1.409       .  A
C314        C315   1.393       .  A
C314        H319   1.085       .  S
C315        C316   1.407       .  A
C315        C322   1.444       .  S
C316        C317   1.403       .  A
C317        C318   1.397       .  A
C317        H320   1.085       .  S
C318        C321   1.445       .  S
C321        N323   1.157       .  T
C322        N324   1.157       .  T
C325        C326   1.410       .  A
C325        C330   1.418       .  A
C326        C327   1.399       .  A
C326        H331   1.083       .  S
C327        C328   1.411       .  A
C327        C334   1.444       .  S
C328        C329   1.409       .  A
C329        C330   1.403       .  A
C329        H332   1.085       .  S
C330        C333   1.445       .  S
C333        N335   1.158       .  T
C334        N336   1.157       .  T
C337        C338   1.408       .  A
C337        C342   1.419       .  A
C338        C339   1.405       .  A
C338        H343   1.083       .  S
C339        C340   1.412       .  A
C339        C346   1.444       .  S
C340        C341   1.403       .  A
C341        C342   1.403       .  A
C341        H344   1.085       .  S
C342        C345   1.444       .  S
C345        N347   1.157       .  T
C346        N348   1.157       .  T
C349        C350   1.407       .  A
C349        C354   1.421       .  A
C350        C351   1.398       .  A
C350        H355   1.084       .  S
C351        C352   1.407       .  A
C351        C358   1.444       .  S
C352        C353   1.403       .  A
C353        C354   1.407       .  A
C353        H356   1.085       .  S
C354        C357   1.445       .  S
C357        N359   1.158       .  T
C358        N360   1.157       .  T
C361        C362   1.403       .  A
C361        C366   1.416       .  A
C362        C363   1.401       .  A
C362        H367   1.085       .  S
C363        C364   1.422       .  A
C363        C370   1.443       .  S
C364        C365   1.408       .  A
C365        C366   1.398       .  A
C365        H368   1.083       .  S
C366        C369   1.446       .  S
C369        N371   1.157       .  T
C370        N372   1.157       .  T
C373        C374   1.404       .  A
C373        C378   1.416       .  A
C374        C375   1.405       .  A
C374        H379   1.085       .  S
C375        C376   1.421       .  A
C375        C382   1.443       .  S
C376        C377   1.408       .  A
C377        C378   1.399       .  A
C377        H380   1.084       .  S
C378        C381   1.444       .  S
C381        N383   1.157       .  T
C382        N384   1.157       .  T
C385        C386   1.407       .  A
C385        C390   1.421       .  A
C386        C387   1.397       .  A
C386        H391   1.084       .  S
C387        C388   1.413       .  A
C387        C394   1.445       .  S
C388        C389   1.406       .  A
C389        C390   1.409       .  A
C389        H392   1.085       .  S
C390        C393   1.444       .  S
C393        N395   1.158       .  T
C394        N396   1.157       .  T
C397        C398   1.405       .  A
C397        C402   1.413       .  A
C398        C399   1.398       .  A
C398        H403   1.085       .  S
C399        C400   1.413       .  A
C399        C406   1.445       .  S
C400        C401   1.405       .  A
C401        C402   1.399       .  A
C401        H404   1.085       .  S
C402        C405   1.445       .  S
C405        N407   1.157       .  T
C406        N408   1.157       .  T
C409        C410   1.401       .  A
C409        C414   1.409       .  A
C410        C411   1.396       .  A
C410        H415   1.085       .  S
C411        C412   1.413       .  A
C411        C418   1.445       .  S
C412        C413   1.401       .  A
C413        C414   1.391       .  A
C413        H416   1.085       .  S
C414        C417   1.444       .  S
C417        N419   1.157       .  T
C418        N420   1.157       .  T
C421        C422   1.405       .  A
C421        C426   1.413       .  A
C422        C423   1.403       .  A
C422        H427   1.085       .  S
C423        C424   1.415       .  A
C423        C430   1.444       .  S
C424        C425   1.405       .  A
C425        C426   1.400       .  A
C425        H428   1.085       .  S
C426        C429   1.444       .  S
C429        N431   1.157       .  T
C430        N432   1.157       .  T
C433        C434   1.404       .  A
C433        C438   1.413       .  A
C434        C435   1.400       .  A
C434        H439   1.084       .  S
C435        C436   1.412       .  A
C435        C442   1.444       .  S
C436        C437   1.405       .  A
C437        C438   1.400       .  A
C437        H440   1.085       .  S
C438        C441   1.445       .  S
C441        N443   1.157       .  T
C442        N444   1.157       .  T
C445        C446   1.401       .  A
C445        C450   1.413       .  A
C446        C447   1.397       .  A
C446        H451   1.085       .  S
C447        C448   1.421       .  A
C447        C454   1.444       .  S
C448        C449   1.408       .  A
C449        C450   1.398       .  A
C449        H452   1.084       .  S
C450        C453   1.445       .  S
C453        N455   1.157       .  T
C454        N456   1.157       .  T
C457        C458   1.405       .  A
C457        C462   1.412       .  A
C458        C459   1.401       .  A
C458        H463   1.085       .  S
C459        C460   1.410       .  A
C459        C466   1.443       .  S
C460        C461   1.404       .  A
C461        C462   1.395       .  A
C461        H464   1.085       .  S
C462        C465   1.445       .  S
C465        N467   1.157       .  T
C466        N468   1.157       .  T
C469        C470   1.402       .  A
C469        C474   1.411       .  A
C470        C471   1.401       .  A
C470        H475   1.085       .  S
C471        C472   1.417       .  A
C471        C478   1.444       .  S
C472        C473   1.405       .  A
C473        C474   1.394       .  A
C473        H476   1.085       .  S
C474        C477   1.446       .  S
C477        N479   1.157       .  T
C478        N480   1.157       .  T
C481        C482   1.403       .  A
C481        C486   1.407       .  A
C482        C483   1.398       .  A
C482        H487   1.085       .  S
C483        C484   1.417       .  A
C483        C490   1.444       .  S
C484        C485   1.407       .  A
C485        C486   1.392       .  A
C485        H488   1.084       .  S
C486        C489   1.444       .  S
C489        N491   1.157       .  T
C490        N492   1.158       .  T
C493        C494   1.407       .  A
C493        C498   1.415       .  A
C494        C495   1.406       .  A
C494        H499   1.084       .  S
C495        C496   1.418       .  A
C495        C502   1.443       .  S
C496        C497   1.408       .  A
C497        C498   1.393       .  A
C497        H500   1.084       .  S
C498        C501   1.446       .  S
C501        N503   1.158       .  T
C502        N504   1.157       .  T
C505        C506   1.403       .  A
C505        C510   1.407       .  A
C506        C507   1.402       .  A
C506        H511   1.085       .  S
C507        C508   1.412       .  A
C507        C514   1.442       .  S
C508        C509   1.405       .  A
C509        C510   1.391       .  A
C509        H512   1.085       .  S
C510        C513   1.445       .  S
C513        N515   1.157       .  T
C514        N516   1.157       .  T
C517        C518   1.403       .  A
C517        C522   1.414       .  A
C518        C519   1.391       .  A
C518        H523   1.085       .  S
C519        C520   1.418       .  A
C519        C526   1.444       .  S
C520        C521   1.407       .  A
C521        C522   1.401       .  A
C521        H524   1.084       .  S
C522        C525   1.442       .  S
C525        N527   1.157       .  T
C526        N528   1.157       .  T
C529        C530   1.403       .  A
C529        C534   1.414       .  A
C530        C531   1.408       .  A
C530        H535   1.084       .  S
C531        C532   1.418       .  A
C531        C538   1.443       .  S
C532        C533   1.401       .  A
C533        C534   1.394       .  A
C533        H536   1.085       .  S
C534        C537   1.445       .  S
C537        N539   1.157       .  T
C538        N540   1.157       .  T
C541        C542   1.411       .  A
C541        C546   1.417       .  A
C542        C543   1.411       .  A
C542        H547   1.084       .  S
C543        C544   1.415       .  A
C543        C550   1.441       .  S
C544        C545   1.409       .  A
C545        C546   1.394       .  A
C545        H548   1.085       .  S
C546        C549   1.445       .  S
C549        N551   1.157       .  T
C550        N552   1.157       .  T
C553        C554   1.410       .  A
C553        C558   1.414       .  A
C554        C555   1.397       .  A
C554        H559   1.084       .  S
C555        C556   1.409       .  A
C555        C562   1.445       .  S
C556        C557   1.407       .  A
C557        C558   1.403       .  A
C557        H560   1.085       .  S
C558        C561   1.444       .  S
C561        N563   1.158       .  T
C562        N564   1.157       .  T
C565        C566   1.404       .  A
C565        C570   1.419       .  A
C566        C567   1.396       .  A
C566        H571   1.085       .  S
C567        C568   1.408       .  A
C567        C574   1.445       .  S
C568        C569   1.399       .  A
C569        C570   1.399       .  A
C569        H572   1.084       .  S
C570        C573   1.445       .  S
C573        N575   1.158       .  T
C574        N576   1.157   1_655  T
C577        C578   1.407       .  A
C577        C582   1.414       .  A
C578        C579   1.399       .  A
C578        H583   1.085       .  S
C579        C580   1.414       .  A
C579        C586   1.443       .  S
C580        C581   1.408       .  A
C581        C582   1.393       .  A
C581        H584   1.085       .  S
C582        C585   1.446       .  S
C585        N587   1.158       .  T
C586        N588   1.157       .  T
C589        C590   1.401       .  A
C589        C594   1.410       .  A
C590        C591   1.396       .  A
C590        H595   1.085       .  S
C591        C592   1.418       .  A
C591        C598   1.444       .  S
C592        C593   1.405       .  A
C593        C594   1.398       .  A
C593        H596   1.085   1_655  S
C594        C597   1.443       .  S
C597        N599   1.157   1_655  T
C598        N600   1.157       .  T
