geometry optimzed in LAMMPS
_audit_creation_date              2020-12-01 
_audit_creation_method            'lammps2cif' 
_symmetry_space_group_name_H-M    'P1' 
_symmetry_Int_Tables_number       1 
_symmetry_cell_setting            triclinic 
loop_ 
_symmetry_equiv_pos_as_xyz 
  x,y,z 
_cell_length_a                    39.45485318 
_cell_length_b                    39.107607716568666 
_cell_length_c                    33.074680555980734 
_cell_angle_alpha                 89.91737804569635 
_cell_angle_beta                  89.35402432235789 
_cell_angle_gamma                 89.71310166501864 
loop_ 
_atom_site_label 
_atom_site_type_symbol 
_atom_site_fract_x 
_atom_site_fract_y 
_atom_site_fract_z 
_atom_site_charge 
O1          O  0.47014485  0.21291604  0.54192484    -0.72600
O2          O  0.47090597  0.28767082  0.45794883    -0.73600
O3          O  0.47000899  0.21504990  0.45636879    -0.62200
O4          O  0.47031332  0.28590029  0.54361314    -0.70600
O5          O  0.02650685  0.28589170  0.54272171    -0.70200
O6          O  0.02629923  0.21426014  0.45559424    -0.61400
O7          O  0.02687828  0.28652613  0.45741294    -0.73900
O8          O  0.02642297  0.21270819  0.54175705    -0.72700
Cu9        Cu  0.46839589  0.25039937  0.50009185     1.04600
Cu10       Cu  0.02848379  0.24978615  0.49947759     1.04300
C11         C  0.49822813  0.20053667  0.55435919     0.93600
C12         C  0.99917969  0.29903633  0.44429350     0.92700
C13         C  0.99802009  0.20372690  0.44195374     0.84900
C14         C  0.49833728  0.29765070  0.55639002     0.91100
C15         C  0.50010318  0.50184735  0.24834270    -0.02200
C16         C  0.50280817  0.49897141  0.75272131    -0.02200
O17         O  0.21532024  0.02485314  0.04526547    -0.72600
O18         O  0.28525368  0.02662949  0.95593035    -0.73600
O19         O  0.21319987  0.02551266  0.95975819    -0.62200
O20         O  0.28707049  0.02625786  0.04155067    -0.70600
O21         O  0.28782063  0.46973326  0.04252426    -0.70200
O22         O  0.21507245  0.46872102  0.95798448    -0.61400
O23         O  0.28727030  0.46982756  0.95694580    -0.73900
O24         O  0.21570142  0.46802830  0.04371380    -0.72700
Cu25       Cu  0.25015897  0.02777360  0.00058444     1.04600
Cu26       Cu  0.25150287  0.46708619  0.00023251     1.04300
C27         C  0.20450121  0.99614610  0.05850418     0.93600
C28         C  0.29758473  0.99842459  0.94278319     0.92700
C29         C  0.20244524  0.99714701  0.94594538     0.86900
C30         C  0.29925314  0.99834379  0.05528591     0.91100
C31         C  0.14598290  0.48028507  0.85548540    -0.22100
C32         C  0.11733818  0.99973980  0.86621698     0.09800
C33         C  0.11683126  0.01815680  0.90279792     0.10200
C34         C  0.14527067  0.01699572  0.92779270    -0.17000
C35         C  0.17404218  0.99751579  0.91728915    -0.27500
C36         C  0.17455309  0.47908309  0.88040658     0.18600
C37         C  0.08820198  0.00074106  0.83846450     0.12500
C38         C  0.08623684  0.03890759  0.91544215    -0.11800
H39         H  0.14487009  0.03099665  0.95606991     0.12800
C40         C  0.20502197  0.45919183  0.86544767    -0.22700
H41         H  0.14623024  0.46640369  0.82711899     0.08500
C42         C  0.08637831  0.02466957  0.80696004     0.04800
C43         C  0.05838945  0.02450228  0.78127112    -0.19900
C44         C  0.03213229  0.49990399  0.78457096    -0.12200
C45         C  0.03338184  0.47740584  0.81917344     0.13500
C46         C  0.06163747  0.47794257  0.84468527    -0.22600
C47         C  0.11410947  0.05055870  0.80047834    -0.05700
H48         H  0.05750214  0.04441687  0.75888686     0.15000
C49         C  0.00608704  0.45180214  0.83014605    -0.15900
H50         H  0.06306747  0.46044049  0.87008119     0.09400
H51         H  0.21277028  0.46887817  0.83516159     0.07200
H52         H  0.19838086  0.43173494  0.86279734     0.08400
H53         H  0.22730093  0.46146738  0.88527776     0.07500
H54         H  0.06385240  0.02196999  0.91847883     0.02300
H55         H  0.08095983  0.05885224  0.89241831     0.02800
H56         H  0.09008075  0.05180257  0.94492531     0.06300
H57         H  0.10889352  0.06761998  0.77437857     0.05300
H58         H  0.13853430  0.03718575  0.79448390    -0.00500
H59         H  0.11658263  0.06671859  0.82783454     0.01000
H60         H  0.01492474  0.43300039  0.85297119     0.04700
H61         H  0.99822630  0.43680336  0.80352463     0.06600
H62         H  0.98401699  0.46504644  0.84407645     0.07500
C63         C  0.43371593  0.02531042  0.83334487    -0.22100
C64         C  0.41029931  0.49894443  0.83020322     0.09800
C65         C  0.41537672  0.47319472  0.80127025     0.10200
C66         C  0.44458392  0.47374542  0.77673477    -0.17000
C67         C  0.46912098  0.50026053  0.77898300    -0.27500
C68         C  0.46252902  0.02687990  0.80820141     0.18600
C69         C  0.38120099  0.49827168  0.85874258     0.12500
C70         C  0.39005618  0.44472767  0.79666107    -0.11800
H71         H  0.44836861  0.45190348  0.75745596     0.12800
C72         C  0.48442320  0.05799367  0.81437713    -0.22700
H73         H  0.42933597  0.04510245  0.85578296     0.08500
C74         C  0.38300790  0.48012328  0.89551128     0.04800
C75         C  0.35484792  0.48007254  0.92170899    -0.19900
C76         C  0.32528150  0.99852965  0.91248972    -0.12200
C77         C  0.32357148  0.01691119  0.87563468     0.13500
C78         C  0.35171130  0.01659897  0.84925523    -0.22600
C79         C  0.41491808  0.46150264  0.90747121    -0.05700
H80         H  0.35621589  0.46629307  0.95012884     0.15000
C81         C  0.29236056  0.03612964  0.86245594    -0.15900
H82         H  0.35058319  0.03052473  0.82091595     0.09400
H83         H  0.49592956  0.05692004  0.84484114     0.07200
H84         H  0.46848571  0.08141975  0.81233083     0.08400
H85         H  0.50472772  0.06123259  0.79177714     0.07500
H86         H  0.36494210  0.45566341  0.78885399     0.02300
H87         H  0.38764975  0.43013501  0.82532582     0.02800
H88         H  0.39764145  0.42654671  0.77239129     0.06300
H89         H  0.41210771  0.44890850  0.93743531     0.05300
H90         H  0.43621787  0.47987406  0.90918515    -0.00500
H91         H  0.42133745  0.44151943  0.88484627     0.01000
H92         H  0.29831911  0.06374699  0.85947748     0.04700
H93         H  0.27060369  0.03329350  0.88359704     0.06600
H94         H  0.28418250  0.02635829  0.83262290     0.07500
C95         C  0.07347381  0.02558319  0.17214429    -0.22100
C96         C  0.09495050  0.49737014  0.17525683     0.09800
C97         C  0.08797452  0.47201305  0.20413647     0.10200
C98         C  0.05815536  0.47428573  0.22750106    -0.17000
C99         C  0.03397976  0.50110672  0.22250678    -0.27500
C100        C  0.04338218  0.02811419  0.19491406     0.18600
C101        C  0.12397612  0.49475596  0.14672367     0.12500
C102        C  0.11241242  0.44283977  0.21086387    -0.11800
H103        H  0.05464609  0.45485736  0.25024952     0.12800
C104        C  0.02236304  0.05959858  0.18616384    -0.22700
H105        H  0.07972914  0.04543382  0.15038023     0.08500
C106        C  0.12136272  0.47620553  0.11033808     0.04800
C107        C  0.14865207  0.47623900  0.08279574    -0.19900
C108        C  0.17804190  0.99524277  0.09031140    -0.12200
C109        C  0.18074723  0.01357943  0.12702421     0.13500
C110        C  0.15353100  0.01319870  0.15471472    -0.22600
C111        C  0.08930345  0.45750202  0.09989543    -0.05700
H112        H  0.14657839  0.46239675  0.05455206     0.15000
C113        C  0.21205904  0.03309232  0.13854429    -0.15900
H114        H  0.15526552  0.02751593  0.18266569     0.09400
H115        H  0.01886941  0.06211118  0.15300130     0.07200
H116        H  0.03569621  0.08263224  0.19725969     0.08400
H117        H  0.99674038  0.05920343  0.19917648     0.07500
H118        H  0.13738717  0.45310927  0.21990188     0.02300
H119        H  0.11571399  0.42774758  0.18272488     0.02800
H120        H  0.10340357  0.42525028  0.23504842     0.06300
H121        H  0.09134847  0.44483668  0.06992476     0.05300
H122        H  0.06772788  0.47581789  0.09898309    -0.00500
H123        H  0.08380324  0.43754695  0.12286502     0.01000
H124        H  0.20573742  0.06067863  0.14152760     0.04700
H125        H  0.23320139  0.03029891  0.11648642     0.06600
H126        H  0.22136517  0.02353096  0.16805592     0.07500
C127        C  0.36770023  0.02747999  0.12904876    -0.22100
C128        C  0.38141972  0.49599060  0.14072564     0.09800
C129        C  0.36754501  0.46546640  0.12590673     0.10200
C130        C  0.34066636  0.46712520  0.09851684    -0.17000
C131        C  0.32702346  0.99874031  0.08569190    -0.27500
C132        C  0.34065321  0.02942795  0.10190207     0.18600
C133        C  0.41123525  0.49593088  0.16742123     0.12500
C134        C  0.38116447  0.43119138  0.13905179    -0.11800
H135        H  0.33049619  0.44346453  0.08689951     0.12800
C136        C  0.32736319  0.06448065  0.09115450    -0.22700
H137        H  0.37862835  0.05071190  0.14097599     0.08500
C138        C  0.44423144  0.49666295  0.15139734     0.04800
C139        C  0.47175992  0.49764865  0.17763993    -0.19900
C140        C  0.46788047  0.50028374  0.22040835    -0.12200
C141        C  0.43363260  0.99850731  0.23592596     0.13500
C142        C  0.40631594  0.99614812  0.20917714    -0.22600
C143        C  0.45047286  0.49640023  0.10629779    -0.05700
H144        H  0.49634833  0.49532098  0.16354484     0.15000
C145        C  0.42359190  0.99958235  0.28010967    -0.15900
H146        H  0.38059346  0.99521682  0.22108034     0.09400
H147        H  0.34083874  0.08504208  0.10751866     0.07200
H148        H  0.30009572  0.06651660  0.09952947     0.08400
H149        H  0.33103568  0.06932325  0.05832559     0.07500
H150        H  0.37841294  0.42858027  0.17235740     0.02300
H151        H  0.40837684  0.42885780  0.13062268     0.02800
H152        H  0.36739111  0.40977245  0.12471325     0.06300
H153        H  0.47792949  0.49723470  0.09857106     0.05300
H154        H  0.43817942  0.51906594  0.09237600    -0.00500
H155        H  0.43982357  0.47285314  0.09289015     0.01000
H156        H  0.40406314  0.01977646  0.28494939     0.04700
H157        H  0.44425622  0.00588295  0.30058174     0.06600
H158        H  0.41273970  0.97455720  0.28925550     0.07500
C159        C  0.02763096  0.37060441  0.37225385    -0.22100
C160        C  0.99642898  0.38181970  0.35754250     0.09800
C161        C  0.46646162  0.36522248  0.36982662     0.10200
C162        C  0.46831763  0.33808033  0.39753564    -0.17000
C163        C  0.49952681  0.32700809  0.41342972    -0.27500
C164        C  0.02976925  0.34347102  0.39996355     0.18600
C165        C  0.99579313  0.41202480  0.33055449     0.12500
C166        C  0.43250661  0.37659199  0.35416549    -0.11800
H167        H  0.44504849  0.32571361  0.40706497     0.12800
C168        C  0.06449485  0.33339132  0.41460192    -0.22700
H169        H  0.05045612  0.38364839  0.36234646     0.08500
C170        C  0.99673199  0.44525657  0.34624507     0.04800
C171        C  0.99707449  0.47317075  0.31974304    -0.19900
C172        C  0.49714947  0.46945188  0.27694122    -0.12200
C173        C  0.49379749  0.43506646  0.26184608     0.13500
C174        C  0.49405154  0.40725717  0.28889482    -0.22600
C175        C  0.99711254  0.45130945  0.39128418    -0.05700
H176        H  0.99670116  0.49802248  0.33365368     0.15000
C177        C  0.48931348  0.42629789  0.21768643    -0.15900
H178        H  0.49239127  0.38132456  0.27754696     0.09400
H179        H  0.08475616  0.34935113  0.40075687     0.07200
H180        H  0.07003018  0.30641981  0.40631415     0.08400
H181        H  0.06587721  0.33678508  0.44786070     0.07500
H182        H  0.43208339  0.37394431  0.32076149     0.02300
H183        H  0.42787059  0.40375817  0.36232503     0.02800
H184        H  0.41149456  0.36107843  0.36705812     0.06300
H185        H  0.99745368  0.47898032  0.39879212     0.05300
H186        H  0.02002215  0.43931674  0.40449565    -0.00500
H187        H  0.97415125  0.43997071  0.40551574     0.01000
H188        H  0.49100248  0.39831508  0.21227790     0.04700
H189        H  0.50898303  0.43810125  0.19824902     0.06600
H190        H  0.46370918  0.43411695  0.20775163     0.07500
C191        C  0.01493088  0.15400860  0.34502888    -0.22100
C192        C  0.49758896  0.12362066  0.35365081     0.09800
C193        C  0.47982184  0.12008705  0.39060371     0.10200
C194        C  0.47929416  0.14739762  0.41790140    -0.17000
C195        C  0.49749257  0.17744591  0.41009618    -0.27500
C196        C  0.01511281  0.18110587  0.37282523     0.18600
C197        C  0.49922972  0.09522426  0.32428957     0.12500
C198        C  0.46241828  0.08711048  0.40184174    -0.11800
H199        H  0.46530525  0.14483403  0.44597616     0.12800
C200        C  0.03332128  0.21341952  0.36074812    -0.22700
H201        H  0.02841681  0.15655644  0.31643819     0.08500
C202        C  0.47332507  0.08961151  0.29648295     0.04800
C203        C  0.47495910  0.06079603  0.27143998    -0.19900
C204        C  0.50164937  0.03626408  0.27349920    -0.12200
C205        C  0.02956901  0.04477708  0.29935392     0.13500
C206        C  0.02723227  0.07345091  0.32479353    -0.22600
C207        C  0.44394374  0.11424272  0.29305315    -0.05700
H208        H  0.45480884  0.05815094  0.24999830     0.15000
C209        C  0.06231405  0.02457403  0.30137909    -0.15900
H210        H  0.04754999  0.07910168  0.34554593     0.09400
H211        H  0.02279325  0.22316824  0.33191505     0.07200
H212        H  0.06071513  0.20782998  0.35620967     0.08400
H213        H  0.03064970  0.23416126  0.38333714     0.07500
H214        H  0.48126461  0.06593188  0.40222619     0.02300
H215        H  0.44250260  0.08106850  0.37961508     0.02800
H216        H  0.45026045  0.08856500  0.43225747     0.06300
H217        H  0.42580151  0.10626487  0.26946472     0.05300
H218        H  0.45352877  0.14003153  0.28498506    -0.00500
H219        H  0.42988013  0.11582115  0.32221728     0.01000
H220        H  0.07713118  0.02806005  0.27305165     0.04700
H221        H  0.05779883  0.99715529  0.30726306     0.06600
H222        H  0.07888228  0.03363422  0.32605134     0.07500
C223        C  0.47556996  0.35723818  0.64378228    -0.22100
C224        C  0.99925237  0.38335440  0.63764854     0.09800
C225        C  0.02280507  0.38101998  0.60537992     0.10200
C226        C  0.02218309  0.35242439  0.57988193    -0.17000
C227        C  0.49830520  0.32628135  0.58561786    -0.27500
C228        C  0.47465101  0.32872315  0.61805380     0.18600
C229        C  0.00020790  0.41204981  0.66672963     0.12500
C230        C  0.04826971  0.40893053  0.59757851    -0.11800
H231        H  0.04007528  0.35077294  0.55483237     0.12800
C232        C  0.44920727  0.30094620  0.62663769    -0.22700
H233        H  0.45791309  0.35912676  0.66904415     0.08500
C234        C  0.47697970  0.43916299  0.66541360     0.04800
C235        C  0.47926396  0.46549078  0.69383335    -0.19900
C236        C  0.50420566  0.46619119  0.72465224    -0.12200
C237        C  0.02872688  0.43836369  0.72429354     0.13500
C238        C  0.02539839  0.41192456  0.69580085    -0.22600
C239        C  0.44993416  0.44054803  0.63363785    -0.05700
H240        H  0.46062173  0.48585449  0.69237095     0.15000
C241        C  0.05932972  0.43410715  0.75138584    -0.15900
H242        H  0.04299932  0.39051911  0.69580821     0.09400
H243        H  0.43097475  0.29912320  0.60146247     0.07200
H244        H  0.43434897  0.30613615  0.65471091     0.08400
H245        H  0.46250965  0.27607976  0.63048419     0.07500
H246        H  0.06526746  0.41150975  0.62389042     0.02300
H247        H  0.03484854  0.43357049  0.59253679     0.02800
H248        H  0.06426474  0.40345631  0.57048397     0.06300
H249        H  0.43400183  0.46394206  0.63641475     0.05300
H250        H  0.43310333  0.41801321  0.63665659    -0.00500
H251        H  0.96192449  0.44049919  0.60310179     0.01000
H252        H  0.57786274  0.41545741  0.73857676     0.04700
H253        H  0.05187453  0.42303171  0.78085475     0.06600
H254        H  0.07438883  0.45754617  0.75493869     0.07500
C255        C  0.48384411  0.11265146  0.60079315    -0.22100
C256        C  0.00002817  0.11618812  0.63795536     0.09800
C257        C  0.01567140  0.14742498  0.64770570     0.10200
C258        C  0.01484920  0.17457311  0.61979000    -0.17000
C259        C  0.49819720  0.17126068  0.58270827    -0.27500
C260        C  0.48269705  0.13973137  0.57301612     0.18600
C261        C  0.50021734  0.08675725  0.66622770     0.12500
C262        C  0.03291375  0.15205713  0.68769843    -0.11800
H263        H  0.02686711  0.19861186  0.62710985     0.12800
C264        C  0.46570539  0.13316790  0.53326386    -0.22700
H265        H  0.47209863  0.08848118  0.59336161     0.08500
C266        C  0.47301281  0.08055478  0.69271274     0.04800
C267        C  0.47435777  0.05245241  0.71900339    -0.19900
C268        C  0.50317649  0.03035529  0.72178286    -0.12200
C269        C  0.02943896  0.03603277  0.69185967     0.13500
C270        C  0.02754559  0.06410862  0.66536413    -0.22600
C271        C  0.44222930  0.10358696  0.69297853    -0.05700
H272        H  0.45170752  0.04801057  0.73661670     0.15000
C273        C  0.06025858  0.01375514  0.68561945    -0.15900
H274        H  0.04784377  0.06847535  0.64357612     0.09400
H275        H  0.43875534  0.12637114  0.53870999     0.07200
H276        H  0.47861306  0.11157567  0.51753605     0.08400
H277        H  0.46641825  0.15548321  0.51285119     0.07500
H278        H  0.05387101  0.13319579  0.69060344     0.02300
H279        H  0.01436135  0.14811693  0.71275135     0.02800
H280        H  0.04369147  0.17809375  0.69072190     0.06300
H281        H  0.42304848  0.09546293  0.71582664     0.05300
H282        H  0.43014154  0.10320035  0.66283742    -0.00500
H283        H  0.44984077  0.13016326  0.70017606     0.01000
H284        H  0.05935643  0.00159501  0.65532635     0.04700
H285        H  0.06270530  0.99372383  0.70819986     0.06600
H286        H  0.08352863  0.02952803  0.68745660     0.07500
O287        O  0.47014965  0.71291018  0.54188942    -0.72600
O288        O  0.47090727  0.78767376  0.45792138    -0.73600
O289        O  0.47001826  0.71504970  0.45633318    -0.62200
O290        O  0.47030891  0.78589463  0.54358663    -0.70600
O291        O  0.02650223  0.78589202  0.54270051    -0.70200
O292        O  0.02630874  0.71426722  0.45556095    -0.61400
O293        O  0.02687984  0.78653318  0.45739123    -0.73900
O294        O  0.02642746  0.71270739  0.54172400    -0.72700
Cu295      Cu  0.46839858  0.75039703  0.50005989     1.04600
Cu296      Cu  0.02848643  0.74978993  0.49945012     1.04300
C297        C  0.49823350  0.70053195  0.55432381     0.93600
C298        C  0.99918148  0.79904380  0.44427237     0.92700
C299        C  0.99803136  0.70372924  0.44192046     0.84900
C300        C  0.49833055  0.79764628  0.55636910     0.91100
C301        C  0.50010617  0.00186830  0.24834477    -0.02200
C302        C  0.50280487  0.99895766  0.75272428    -0.02200
O303        O  0.21531713  0.52478984  0.04525478    -0.72600
O304        O  0.28525399  0.52657092  0.95592452    -0.73600
O305        O  0.21320205  0.52545304  0.95975099    -0.62200
O306        O  0.28706656  0.52619587  0.04154511    -0.70600
O307        O  0.28782289  0.96979511  0.04252654    -0.70200
O308        O  0.21507002  0.96878066  0.95799743    -0.61400
O309        O  0.28726538  0.96988611  0.95695166    -0.73900
O310        O  0.21570672  0.96809158  0.04372607    -0.72700
Cu311      Cu  0.25015819  0.52771224  0.00057719     1.04600
Cu312      Cu  0.25150253  0.96714754  0.00024115     1.04300
C313        C  0.20449519  0.49608310  0.05849083     0.93600
C314        C  0.29758730  0.49836707  0.94277739     0.92700
C315        C  0.20244660  0.49708846  0.94593707     0.86900
C316        C  0.29924827  0.49828303  0.05528435     0.91100
C317        C  0.14599135  0.98030650  0.85549403    -0.22100
C318        C  0.11733124  0.49971438  0.86622519     0.09800
C319        C  0.11682594  0.51810972  0.90282114     0.10200
C320        C  0.14526735  0.51693539  0.92781122    -0.17000
C321        C  0.17403846  0.49746185  0.91728923    -0.27500
C322        C  0.17456038  0.97911992  0.88041810     0.18600
C323        C  0.08819371  0.50073152  0.83847616     0.12500
C324        C  0.08623191  0.53885246  0.91548552    -0.11800
H325        H  0.14486944  0.53092209  0.95609835     0.12800
C326        C  0.20503262  0.95922635  0.86547307    -0.22700
H327        H  0.14624127  0.96641052  0.82713765     0.08500
C328        C  0.08637449  0.52466804  0.80697980     0.04800
C329        C  0.05838654  0.52451081  0.78128926    -0.19900
C330        C  0.03213639  0.99989508  0.78456438    -0.12200
C331        C  0.03339205  0.97740307  0.81917184     0.13500
C332        C  0.06164982  0.97794811  0.84468057    -0.22600
C333        C  0.11410988  0.55055405  0.80050784    -0.05700
H334        H  0.05750276  0.54442965  0.75890988     0.15000
C335        C  0.00609947  0.95179988  0.83015471    -0.15900
H336        H  0.06308312  0.96045162  0.87008167     0.09400
H337        H  0.21277813  0.96889766  0.83517923     0.07200
H338        H  0.19839684  0.93176663  0.86284408     0.08400
H339        H  0.22731221  0.96151805  0.88529948     0.07500
H340        H  0.06384832  0.52191254  0.91851186     0.02300
H341        H  0.08095242  0.55880980  0.89247778     0.02800
H342        H  0.09007794  0.55173086  0.94497847     0.06300
H343        H  0.10889690  0.56762289  0.77441410     0.05300
H344        H  0.13853267  0.53717862  0.79450889    -0.00500
H345        H  0.11658508  0.56670612  0.82787029     0.01000
H346        H  0.01494223  0.93300017  0.85297936     0.04700
H347        H  0.99823309  0.93679916  0.80353722     0.06600
H348        H  0.98403162  0.96504518  0.84408910     0.07500
C349        C  0.43370073  0.52529623  0.83333206    -0.22100
C350        C  0.41030436  0.99896762  0.83022050     0.09800
C351        C  0.41537020  0.97321382  0.80128992     0.10200
C352        C  0.44457999  0.97374700  0.77675856    -0.17000
C353        C  0.46912425  0.00025556  0.77899722    -0.27500
C354        C  0.46251649  0.52687716  0.80819383     0.18600
C355        C  0.38120572  0.99830934  0.85875928     0.12500
C356        C  0.39003091  0.94476462  0.79667330    -0.11800
H357        H  0.44835737  0.95190020  0.75748572     0.12800
C358        C  0.48440551  0.55799230  0.81438490    -0.22700
H359        H  0.42931298  0.54508391  0.85577346     0.08500
C360        C  0.38299643  0.98014254  0.89551638     0.04800
C361        C  0.35483386  0.98009989  0.92170958    -0.19900
C362        C  0.32528174  0.49847616  0.91248096    -0.12200
C363        C  0.32355439  0.51683727  0.87561315     0.13500
C364        C  0.35169141  0.51653258  0.84922922    -0.22600
C365        C  0.41489315  0.96149520  0.90747064    -0.05700
H366        H  0.35618963  0.96630573  0.95012052     0.15000
C367        C  0.29232839  0.53602706  0.86242767    -0.15900
H368        H  0.35055030  0.53044381  0.82088093     0.09400
H369        H  0.49590392  0.55691470  0.84485310     0.07200
H370        H  0.46846601  0.58141692  0.81233827     0.08400
H371        H  0.50471636  0.56123634  0.79179384     0.07500
H372        H  0.36492551  0.95571873  0.78886177     0.02300
H373        H  0.38760944  0.93017124  0.82533560     0.02800
H374        H  0.39760709  0.92658051  0.77240299     0.06300
H375        H  0.41207111  0.94889025  0.93742694     0.05300
H376        H  0.43620464  0.97985169  0.90919891    -0.00500
H377        H  0.42130286  0.94151728  0.88483568     0.01000
H378        H  0.29826885  0.56364648  0.85942273     0.04700
H379        H  0.27057859  0.53319094  0.88357943     0.06600
H380        H  0.28414960  0.52623117  0.83260622     0.07500
C381        C  0.07346637  0.52555089  0.17213020    -0.22100
C382        C  0.09496155  0.99740551  0.17527421     0.09800
C383        C  0.08798767  0.97204838  0.20415425     0.10200
C384        C  0.05816624  0.97431721  0.22751484    -0.17000
C385        C  0.03398620  0.00113352  0.22251525    -0.27500
C386        C  0.04337698  0.52808591  0.19490379     0.18600
C387        C  0.12398866  0.99479570  0.14674360     0.12500
C388        C  0.11243008  0.94287975  0.21088724    -0.11800
H389        H  0.05465877  0.95488956  0.25026454     0.12800
C390        C  0.02236024  0.55957243  0.18615484    -0.22700
H391        H  0.07972267  0.54540101  0.15036551     0.08500
C392        C  0.12138062  0.97624166  0.11036008     0.04800
C393        C  0.14866794  0.97628528  0.08281584    -0.19900
C394        C  0.17803389  0.49518293  0.09029637    -0.12200
C395        C  0.18074417  0.51351582  0.12701109     0.13500
C396        C  0.15352577  0.51314572  0.15469900    -0.22600
C397        C  0.08932846  0.95752446  0.09992040    -0.05700
H398        H  0.14659830  0.96243949  0.05457361     0.15000
C399        C  0.21206409  0.53301361  0.13853574    -0.15900
H400        H  0.15526498  0.52745953  0.18265145     0.09400
H401        H  0.01886419  0.56208447  0.15299258     0.07200
H402        H  0.03569670  0.58260500  0.19724817     0.08400
H403        H  0.99673840  0.55918045  0.19917030     0.07500
H404        H  0.13740216  0.95315430  0.21992742     0.02300
H405        H  0.11573698  0.92778605  0.18275027     0.02800
H406        H  0.10342219  0.92529029  0.23507228     0.06300
H407        H  0.09137706  0.94485921  0.06994986     0.05300
H408        H  0.06774540  0.97583128  0.09900901    -0.00500
H409        H  0.08383744  0.93756746  0.12289051     0.01000
H410        H  0.20575501  0.56060266  0.14151946     0.04700
H411        H  0.23320704  0.53021103  0.11648003     0.06600
H412        H  0.22136355  0.52344676  0.16804790     0.07500
C413        C  0.36766369  0.52743510  0.12908010    -0.22100
C414        C  0.38143222  0.99603011  0.14071481     0.09800
C415        C  0.36753203  0.96550994  0.12591984     0.10200
C416        C  0.34065243  0.96717663  0.09853254    -0.17000
C417        C  0.32701487  0.49868454  0.08569538    -0.27500
C418        C  0.34061898  0.52937500  0.10192958     0.18600
C419        C  0.41124604  0.99595913  0.16741240     0.12500
C420        C  0.38112596  0.93123082  0.13908683    -0.11800
H421        H  0.33046261  0.94351816  0.08693406     0.12800
C422        C  0.32730349  0.56442294  0.09120427    -0.22700
H423        H  0.37857268  0.55067000  0.14102461     0.08500
C424        C  0.44424372  0.99668125  0.15139224     0.04800
C425        C  0.47177013  0.99766796  0.17763816    -0.19900
C426        C  0.46788664  0.00030312  0.22040586    -0.12200
C427        C  0.43362772  0.49848813  0.23593245     0.13500
C428        C  0.40630881  0.49612227  0.20918700    -0.22600
C429        C  0.45048834  0.99640174  0.10629369    -0.05700
H430        H  0.49636061  0.99533908  0.16354683     0.15000
C431        C  0.42359199  0.49956766  0.28011767    -0.15900
H432        H  0.38058751  0.49518726  0.22109358     0.09400
H433        H  0.34075809  0.58498648  0.10758936     0.07200
H434        H  0.30003237  0.56643215  0.09957049     0.08400
H435        H  0.33098106  0.56928685  0.05838050     0.07500
H436        H  0.37837404  0.92863736  0.17239434     0.02300
H437        H  0.40833631  0.92887324  0.13065678     0.02800
H438        H  0.36733553  0.90981574  0.12476373     0.06300
H439        H  0.47794585  0.99722580  0.09856940     0.05300
H440        H  0.43820189  0.01906555  0.09235923    -0.00500
H441        H  0.43983340  0.97285224  0.09289778     0.01000
H442        H  0.40406441  0.51976327  0.28495741     0.04700
H443        H  0.44425880  0.50586818  0.30058542     0.06600
H444        H  0.41273910  0.47454374  0.28926818     0.07500
C445        C  0.02763099  0.87065505  0.37229502    -0.22100
C446        C  0.99643513  0.88182784  0.35752307     0.09800
C447        C  0.46647366  0.86519172  0.36975170     0.10200
C448        C  0.46832899  0.83805020  0.39746200    -0.17000
C449        C  0.49953054  0.82701902  0.41341398    -0.27500
C450        C  0.02976794  0.84352635  0.40001064     0.18600
C451        C  0.99579656  0.91203609  0.33053885     0.12500
C452        C  0.43252458  0.87652144  0.35403438    -0.11800
H453        H  0.44506363  0.82565014  0.40694694     0.12800
C454        C  0.06448487  0.83350415  0.41473010    -0.22700
H455        H  0.05045215  0.88373097  0.36243306     0.08500
C456        C  0.99671842  0.94526559  0.34623513     0.04800
C457        C  0.99706516  0.97318767  0.31974085    -0.19900
C458        C  0.49715250  0.96946828  0.27693605    -0.12200
C459        C  0.49381308  0.93508496  0.26183395     0.13500
C460        C  0.49406972  0.90726893  0.28887587    -0.22600
C461        C  0.99707154  0.95131579  0.39127601    -0.05700
H462        H  0.99668253  0.99802297  0.33364890     0.15000
C463        C  0.48933977  0.92631942  0.21767090    -0.15900
H464        H  0.49242311  0.88134660  0.27752703     0.09400
H465        H  0.08474139  0.84950422  0.40094134     0.07200
H466        H  0.07008234  0.80654511  0.40644379     0.08400
H467        H  0.06580328  0.83689053  0.44799463     0.07500
H468        H  0.43214250  0.87387283  0.32062940     0.02300
H469        H  0.42784849  0.90368247  0.36218707     0.02800
H470        H  0.41151578  0.86098350  0.36689276     0.06300
H471        H  0.99739456  0.97898374  0.39878766     0.05300
H472        H  0.01997980  0.93933308  0.40450498    -0.00500
H473        H  0.97410743  0.93996329  0.40548784     0.01000
H474        H  0.49103601  0.89833900  0.21225833     0.04700
H475        H  0.50901041  0.93812978  0.19824002     0.06600
H476        H  0.46373554  0.93413441  0.20773063     0.07500
C477        C  0.01492392  0.65401562  0.34498738    -0.22100
C478        C  0.49761490  0.62361251  0.35363001     0.09800
C479        C  0.47987425  0.62006746  0.39059913     0.10200
C480        C  0.47934386  0.64737896  0.41789509    -0.17000
C481        C  0.49750837  0.67744372  0.41006803    -0.27500
C482        C  0.01509965  0.68111641  0.37277981     0.18600
C483        C  0.49925226  0.59521575  0.32426854     0.12500
C484        C  0.46249626  0.58708051  0.40185061    -0.11800
H485        H  0.46537737  0.64480496  0.44598487     0.12800
C486        C  0.03326915  0.71344691  0.36068269    -0.22700
H487        H  0.02838752  0.65657341  0.31638266     0.08500
C488        C  0.47333927  0.58959860  0.29647453     0.04800
C489        C  0.47496486  0.56077917  0.27143690    -0.19900
C490        C  0.50165419  0.53624607  0.27349225    -0.12200
C491        C  0.02958049  0.54476031  0.29933624     0.13500
C492        C  0.02725305  0.57343973  0.32476896    -0.22600
C493        C  0.44395453  0.61422680  0.29305747    -0.05700
H494        H  0.45480900  0.55813182  0.25000462     0.15000
C495        C  0.06232358  0.52455332  0.30135735    -0.15900
H496        H  0.04757542  0.57909175  0.34551380     0.09400
H497        H  0.02270813  0.72318698  0.33186294     0.07200
H498        H  0.06066438  0.70788255  0.35611160     0.08400
H499        H  0.03059836  0.73418461  0.38327731     0.07500
H500        H  0.48135492  0.56591282  0.40222021     0.02300
H501        H  0.44257204  0.58102817  0.37963834     0.02800
H502        H  0.45035374  0.58852787  0.43227548     0.06300
H503        H  0.42580390  0.60624528  0.26948020     0.05300
H504        H  0.45353423  0.64001594  0.28498127    -0.00500
H505        H  0.42990276  0.61580526  0.32223000     0.01000
H506        H  0.07713683  0.52803399  0.27302613     0.04700
H507        H  0.05780599  0.49713577  0.30724642     0.06600
H508        H  0.07889674  0.53361416  0.32602434     0.07500
C509        C  0.47555367  0.85721182  0.64378186    -0.22100
C510        C  0.99923539  0.88333089  0.63766068     0.09800
C511        C  0.02278881  0.88100641  0.60539140     0.10200
C512        C  0.02217008  0.85241725  0.57988260    -0.17000
C513        C  0.49829329  0.82627141  0.58560619    -0.27500
C514        C  0.47463625  0.82870447  0.61804052     0.18600
C515        C  0.00018663  0.91202224  0.66674953     0.12500
C516        C  0.04825021  0.90892182  0.59759932    -0.11800
H517        H  0.04006370  0.85077341  0.55483401     0.12800
C518        C  0.44918963  0.80092675  0.62660784    -0.22700
H519        H  0.45789493  0.85909283  0.66904273     0.08500
C520        C  0.47695359  0.93913188  0.66544096     0.04800
C521        C  0.47924450  0.96546464  0.69385400    -0.19900
C522        C  0.50419448  0.96617178  0.72466293    -0.12200
C523        C  0.02871675  0.93834504  0.72430093     0.13500
C524        C  0.02538382  0.91190254  0.69581283    -0.22600
C525        C  0.44989625  0.94050860  0.63367909    -0.05700
H526        H  0.46060090  0.98582746  0.69239420     0.15000
C527        C  0.05932667  0.93409463  0.75138329    -0.15900
H528        H  0.04298810  0.89049967  0.69581575     0.09400
H529        H  0.43095992  0.79911351  0.60142858     0.07200
H530        H  0.43432843  0.80610886  0.65468091     0.08400
H531        H  0.46248962  0.77605799  0.63044527     0.07500
H532        H  0.06524910  0.91149554  0.62391091     0.02300
H533        H  0.03482619  0.93356180  0.59256798     0.02800
H534        H  0.06424452  0.90345690  0.57050162     0.06300
H535        H  0.43396135  0.96390056  0.63645991     0.05300
H536        H  0.43306956  0.91797178  0.63671120    -0.00500
H537        H  0.96187519  0.94045727  0.60313691     0.01000
H538        H  0.57785684  0.91544253  0.73857335     0.04700
H539        H  0.05187915  0.92302532  0.78085807     0.06600
H540        H  0.07438607  0.95753494  0.75492404     0.07500
C541        C  0.48383932  0.61265674  0.60078691    -0.22100
C542        C  0.00004318  0.61619337  0.63793687     0.09800
C543        C  0.01570288  0.64742596  0.64766801     0.10200
C544        C  0.01487874  0.67456883  0.61974535    -0.17000
C545        C  0.49820533  0.67125788  0.58267710    -0.27500
C546        C  0.48268645  0.63973319  0.57300493     0.18600
C547        C  0.50023229  0.58676850  0.66621891     0.12500
C548        C  0.03296170  0.65206069  0.68764998    -0.11800
H549        H  0.02690991  0.69860391  0.62705107     0.12800
C550        C  0.46566622  0.63317012  0.53327028    -0.22700
H551        H  0.47208033  0.58848993  0.59337019     0.08500
C552        C  0.47302902  0.58057345  0.69270864     0.04800
C553        C  0.47437182  0.55247446  0.71900500    -0.19900
C554        C  0.50318747  0.53037379  0.72178638    -0.12200
C555        C  0.02945347  0.53604929  0.69186658     0.13500
C556        C  0.02756070  0.56411996  0.66536322    -0.22600
C557        C  0.44224931  0.60361074  0.69297430    -0.05700
H558        H  0.45172166  0.54803737  0.73662002     0.15000
C559        C  0.06027534  0.51377290  0.68563572    -0.15900
H560        H  0.04785966  0.56848264  0.64357487     0.09400
H561        H  0.43871789  0.62638089  0.53874358     0.07200
H562        H  0.47855771  0.61157259  0.51753403     0.08400
H563        H  0.46636957  0.65548279  0.51285336     0.07500
H564        H  0.05391351  0.63319268  0.69055027     0.02300
H565        H  0.01441662  0.64813265  0.71271344     0.02800
H566        H  0.04374970  0.67809411  0.69065977     0.06300
H567        H  0.42307013  0.59549404  0.71582807     0.05300
H568        H  0.43015731  0.60322094  0.66283578    -0.00500
H569        H  0.44986647  0.63018698  0.70016385     0.01000
H570        H  0.05937619  0.50160603  0.65534620     0.04700
H571        H  0.06272288  0.49374699  0.70822277     0.06600
H572        H  0.08354388  0.52954833  0.68747025     0.07500
O573        O  0.97014494  0.21291605  0.54192490    -0.72600
O574        O  0.97090602  0.28767083  0.45794892    -0.73600
O575        O  0.97000904  0.21504992  0.45636886    -0.62200
O576        O  0.97031340  0.28590029  0.54361323    -0.70600
O577        O  0.52650678  0.28589165  0.54272167    -0.70200
O578        O  0.52629919  0.21426013  0.45559417    -0.61400
O579        O  0.52687824  0.28652611  0.45741291    -0.73900
O580        O  0.52642288  0.21270815  0.54175699    -0.72700
Cu581      Cu  0.96839595  0.25039938  0.50009193     1.04600
Cu582      Cu  0.52848373  0.24978612  0.49947754     1.04300
C583        C  0.99822822  0.20053669  0.55435924     0.93600
C584        C  0.49917967  0.29903633  0.44429346     0.92700
C585        C  0.49802005  0.20372689  0.44195367     0.84900
C586        C  0.99833733  0.29765072  0.55639010     0.91100
C587        C  0.00010320  0.50184734  0.24834274    -0.02200
C588        C  0.00280814  0.49897147  0.75272135    -0.02200
O589        O  0.71532024  0.02485313  0.04526550    -0.72600
O590        O  0.78525364  0.02662950  0.95593033    -0.73600
O591        O  0.71319983  0.02551265  0.95975823    -0.62200
O592        O  0.78707049  0.02625788  0.04155066    -0.70600
O593        O  0.78782062  0.46973329  0.04252428    -0.70200
O594        O  0.71507245  0.46872105  0.95798448    -0.61400
O595        O  0.78727028  0.46982760  0.95694580    -0.73900
O596        O  0.71570142  0.46802831  0.04371380    -0.72700
Cu597      Cu  0.75015896  0.02777360  0.00058445     1.04600
Cu598      Cu  0.75150287  0.46708622  0.00023252     1.04300
C599        C  0.70450122  0.99614609  0.05850420     0.93600
C600        C  0.79758471  0.99842461  0.94278318     0.92700
C601        C  0.70244523  0.99714699  0.94594540     0.86900
C602        C  0.79925314  0.99834381  0.05528591     0.91100
C603        C  0.64598295  0.48028511  0.85548534    -0.22100
C604        C  0.61733821  0.99973985  0.86621693     0.09800
C605        C  0.61683126  0.01815680  0.90279791     0.10200
C606        C  0.64527066  0.01699568  0.92779271    -0.17000
C607        C  0.67404218  0.99751578  0.91728916    -0.27500
C608        C  0.67455314  0.47908318  0.88040655     0.18600
C609        C  0.58820200  0.00074109  0.83846446     0.12500
C610        C  0.58623683  0.03890756  0.91544214    -0.11800
H611        H  0.64487005  0.03099659  0.95606997     0.12800
C612        C  0.70502206  0.45919201  0.86544760    -0.22700
H613        H  0.64623033  0.46640381  0.82711896     0.08500
C614        C  0.58637828  0.02466964  0.80696005     0.04800
C615        C  0.55838943  0.02450231  0.78127113    -0.19900
C616        C  0.53213232  0.49990392  0.78457091    -0.12200
C617        C  0.53338190  0.47740576  0.81917338     0.13500
C618        C  0.56163752  0.47794250  0.84468521    -0.22600
C619        C  0.61410938  0.05055885  0.80047840    -0.05700
H620        H  0.55750208  0.04441692  0.75888687     0.15000
C621        C  0.50608711  0.45180204  0.83014598    -0.15900
H622        H  0.56306753  0.46044041  0.87008111     0.09400
H623        H  0.71277036  0.46887841  0.83516156     0.07200
H624        H  0.69838103  0.43173511  0.86279722     0.08400
H625        H  0.72730102  0.46146759  0.88527771     0.07500
H626        H  0.56385239  0.02196996  0.91847876     0.02300
H627        H  0.58095983  0.05885225  0.89241835     0.02800
H628        H  0.59008071  0.05180250  0.94492535     0.06300
H629        H  0.60889338  0.06762016  0.77437867     0.05300
H630        H  0.63853424  0.03718597  0.79448394    -0.00500
H631        H  0.61658249  0.06671871  0.82783463     0.01000
H632        H  0.51492482  0.43300029  0.85297110     0.04700
H633        H  0.49822638  0.43680326  0.80352454     0.06600
H634        H  0.48401705  0.46504632  0.84407638     0.07500
C635        C  0.93371594  0.02531047  0.83334489    -0.22100
C636        C  0.91029931  0.49894447  0.83020328     0.09800
C637        C  0.91537670  0.47319478  0.80127028     0.10200
C638        C  0.94458388  0.47374551  0.77673478    -0.17000
C639        C  0.96912095  0.50026060  0.77898303    -0.27500
C640        C  0.96252902  0.02687996  0.80820143     0.18600
C641        C  0.88120099  0.49827173  0.85874262     0.12500
C642        C  0.89005616  0.44472773  0.79666111    -0.11800
H643        H  0.94836856  0.45190357  0.75745595     0.12800
C644        C  0.98442320  0.05799372  0.81437712    -0.22700
H645        H  0.92933597  0.04510254  0.85578299     0.08500
C646        C  0.88300787  0.48012333  0.89551132     0.04800
C647        C  0.85484787  0.48007257  0.92170898    -0.19900
C648        C  0.82528148  0.99852967  0.91248972    -0.12200
C649        C  0.82357146  0.01691120  0.87563468     0.13500
C650        C  0.85171130  0.01659901  0.84925525    -0.22600
C651        C  0.91491806  0.46150270  0.90747130    -0.05700
H652        H  0.85621582  0.46629309  0.95012886     0.15000
C653        C  0.79236052  0.03612961  0.86245590    -0.15900
H654        H  0.85058319  0.03052477  0.82091595     0.09400
H655        H  0.99592953  0.05692013  0.84484116     0.07200
H656        H  0.96848572  0.08141980  0.81233075     0.08400
H657        H  0.00472776  0.06123260  0.79177718     0.07500
H658        H  0.86494207  0.45566347  0.78885408     0.02300
H659        H  0.88764976  0.43013505  0.82532585     0.02800
H660        H  0.89764141  0.42654678  0.77239130     0.06300
H661        H  0.91210766  0.44890856  0.93743539     0.05300
H662        H  0.93621782  0.47987415  0.90918527    -0.00500
H663        H  0.92133746  0.44151951  0.88484636     0.01000
H664        H  0.79831903  0.06374697  0.85947745     0.04700
H665        H  0.77060364  0.03329344  0.88359699     0.06600
H666        H  0.78418249  0.02635824  0.83262286     0.07500
C667        C  0.57347388  0.02558322  0.17214435    -0.22100
C668        C  0.59495054  0.49737017  0.17525688     0.09800
C669        C  0.58797453  0.47201306  0.20413648     0.10200
C670        C  0.55815535  0.47428573  0.22750104    -0.17000
C671        C  0.53397975  0.50110672  0.22250675    -0.27500
C672        C  0.54338223  0.02811419  0.19491407     0.18600
C673        C  0.62397615  0.49475598  0.14672372     0.12500
C674        C  0.61241242  0.44283977  0.21086388    -0.11800
H675        H  0.55464605  0.45485734  0.25024947     0.12800
C676        C  0.52236308  0.05959858  0.18616384    -0.22700
H677        H  0.57972921  0.04543385  0.15038032     0.08500
C678        C  0.62136271  0.47620560  0.11033809     0.04800
C679        C  0.64865207  0.47623909  0.08279579    -0.19900
C680        C  0.67804192  0.99524275  0.09031142    -0.12200
C681        C  0.68074731  0.01357935  0.12702427     0.13500
C682        C  0.65353109  0.01319862  0.15471477    -0.22600
C683        C  0.58930341  0.45750216  0.09989543    -0.05700
H684        H  0.64657834  0.46239682  0.05455195     0.15000
C685        C  0.71205918  0.03309214  0.13854435    -0.15900
H686        H  0.65526566  0.02751584  0.18266585     0.09400
H687        H  0.51886949  0.06211120  0.15300130     0.07200
H688        H  0.53569623  0.08263224  0.19725973     0.08400
H689        H  0.49674040  0.05920341  0.19917643     0.07500
H690        H  0.63738716  0.45310925  0.21990192     0.02300
H691        H  0.61571399  0.42774760  0.18272487     0.02800
H692        H  0.60340354  0.42525026  0.23504841     0.06300
H693        H  0.59134840  0.44483686  0.06992472     0.05300
H694        H  0.56772787  0.47581807  0.09898313    -0.00500
H695        H  0.58380319  0.43754707  0.12286498     0.01000
H696        H  0.70573762  0.06067847  0.14152774     0.04700
H697        H  0.73320150  0.03029872  0.11648647     0.06600
H698        H  0.72136530  0.02353072  0.16805598     0.07500
C699        C  0.86770018  0.02748002  0.12904884    -0.22100
C700        C  0.88141967  0.49599059  0.14072575     0.09800
C701        C  0.86754496  0.46546640  0.12590683     0.10200
C702        C  0.84066633  0.46712522  0.09851691    -0.17000
C703        C  0.82702345  0.99874034  0.08569192    -0.27500
C704        C  0.84065319  0.02942797  0.10190211     0.18600
C705        C  0.91123523  0.49593086  0.16742132     0.12500
C706        C  0.88116439  0.43119137  0.13905192    -0.11800
H707        H  0.83049615  0.44346454  0.08689957     0.12800
C708        C  0.82736319  0.06448068  0.09115451    -0.22700
H709        H  0.87862829  0.05071192  0.14097608     0.08500
C710        C  0.94423140  0.49666290  0.15139741     0.04800
C711        C  0.97175994  0.49764862  0.17763996    -0.19900
C712        C  0.96788047  0.50028374  0.22040841    -0.12200
C713        C  0.93363258  0.99850731  0.23592605     0.13500
C714        C  0.90631597  0.99614814  0.20917720    -0.22600
C715        C  0.95047281  0.49640011  0.10629787    -0.05700
H716        H  0.99634821  0.49532097  0.16354492     0.15000
C717        C  0.92359193  0.99958232  0.28010977    -0.15900
H718        H  0.88059331  0.99521682  0.22108052     0.09400
H719        H  0.84083873  0.08504210  0.10751867     0.07200
H720        H  0.80009570  0.06651664  0.09952944     0.08400
H721        H  0.83103571  0.06932326  0.05832560     0.07500
H722        H  0.87841281  0.42858027  0.17235752     0.02300
H723        H  0.90837677  0.42885778  0.13062286     0.02800
H724        H  0.86739104  0.40977245  0.12471335     0.06300
H725        H  0.97792942  0.49723455  0.09857112     0.05300
H726        H  0.93817937  0.51906581  0.09237602    -0.00500
H727        H  0.93982350  0.47285300  0.09289027     0.01000
H728        H  0.90406315  0.01977643  0.28494953     0.04700
H729        H  0.94425623  0.00588291  0.30058181     0.06600
H730        H  0.91273973  0.97455715  0.28925560     0.07500
C731        C  0.52763092  0.37060474  0.37225429    -0.22100
C732        C  0.49642900  0.38181975  0.35754252     0.09800
C733        C  0.96646156  0.36522270  0.36982699     0.10200
C734        C  0.96831757  0.33808057  0.39753606    -0.17000
C735        C  0.99952681  0.32700807  0.41342972    -0.27500
C736        C  0.52976922  0.34347137  0.39996401     0.18600
C737        C  0.49579313  0.41202483  0.33055449     0.12500
C738        C  0.93250652  0.37659242  0.35416616    -0.11800
H739        H  0.94504844  0.32571411  0.40706569     0.12800
C740        C  0.56449475  0.33339205  0.41460295    -0.22700
H741        H  0.55045609  0.38364895  0.36234721     0.08500
C742        C  0.49673196  0.44525662  0.34624506     0.04800
C743        C  0.49707446  0.47317077  0.31974300    -0.19900
C744        C  0.99714949  0.46945185  0.27694124    -0.12200
C745        C  0.99379753  0.43506644  0.26184609     0.13500
C746        C  0.99405155  0.40725713  0.28889480    -0.22600
C747        C  0.49711243  0.45130952  0.39128417    -0.05700
H748        H  0.49670113  0.49802256  0.33365366     0.15000
C749        C  0.98931354  0.42629789  0.21768643    -0.15900
H750        H  0.99239126  0.38132457  0.27754696     0.09400
H751        H  0.58475602  0.34935214  0.40075830     0.07200
H752        H  0.57003050  0.30642063  0.40631516     0.08400
H753        H  0.56587666  0.33678574  0.44786177     0.07500
H754        H  0.93208306  0.37394467  0.32076217     0.02300
H755        H  0.92787075  0.40375866  0.36232565     0.02800
H756        H  0.91149446  0.36107904  0.36705905     0.06300
H757        H  0.49745348  0.47898040  0.39879209     0.05300
H758        H  0.52002205  0.43931688  0.40449569    -0.00500
H759        H  0.47415114  0.43997072  0.40551568     0.01000
H760        H  0.99100256  0.39831508  0.21227789     0.04700
H761        H  0.00898309  0.43810126  0.19824903     0.06600
H762        H  0.96370924  0.43411694  0.20775161     0.07500
C763        C  0.51493085  0.15400855  0.34502883    -0.22100
C764        C  0.99758897  0.12362071  0.35365084     0.09800
C765        C  0.97982183  0.12008709  0.39060373     0.10200
C766        C  0.97929416  0.14739764  0.41790146    -0.17000
C767        C  0.99749260  0.17744592  0.41009624    -0.27500
C768        C  0.51511278  0.18110584  0.37282516     0.18600
C769        C  0.99922974  0.09522431  0.32428959     0.12500
C770        C  0.96241823  0.08711053  0.40184172    -0.11800
H771        H  0.96530526  0.14483405  0.44597615     0.12800
C772        C  0.53332126  0.21341948  0.36074804    -0.22700
H773        H  0.52841679  0.15655639  0.31643810     0.08500
C774        C  0.97332506  0.08961154  0.29648299     0.04800
C775        C  0.97495909  0.06079604  0.27144005    -0.19900
C776        C  0.00164937  0.03626410  0.27349924    -0.12200
C777        C  0.52956899  0.04477703  0.29935392     0.13500
C778        C  0.52723227  0.07345085  0.32479356    -0.22600
C779        C  0.94394374  0.11424276  0.29305317    -0.05700
H780        H  0.95480878  0.05815093  0.24999836     0.15000
C781        C  0.56231402  0.02457396  0.30137913    -0.15900
H782        H  0.54754991  0.07910159  0.34554594     0.09400
H783        H  0.52279323  0.22316820  0.33191497     0.07200
H784        H  0.56071511  0.20782993  0.35620959     0.08400
H785        H  0.53064969  0.23416122  0.38333706     0.07500
H786        H  0.98126453  0.06593191  0.40222615     0.02300
H787        H  0.94250254  0.08106860  0.37961504     0.02800
H788        H  0.95026040  0.08856505  0.43225743     0.06300
H789        H  0.92580150  0.10626490  0.26946476     0.05300
H790        H  0.95352878  0.14003156  0.28498504    -0.00500
H791        H  0.92988014  0.11582122  0.32221731     0.01000
H792        H  0.57713118  0.02805998  0.27305172     0.04700
H793        H  0.55779878  0.99715522  0.30726307     0.06600
H794        H  0.57888223  0.03363411  0.32605140     0.07500
C795        C  0.97557001  0.35723816  0.64378236    -0.22100
C796        C  0.49925237  0.38335439  0.63764842     0.09800
C797        C  0.52280509  0.38101992  0.60537983     0.10200
C798        C  0.52218310  0.35242434  0.57988180    -0.17000
C799        C  0.99830525  0.32628137  0.58561794    -0.27500
C800        C  0.97465103  0.32872315  0.61805388     0.18600
C801        C  0.50020793  0.41204980  0.66672952     0.12500
C802        C  0.54826981  0.40893041  0.59757844    -0.11800
H803        H  0.54007522  0.35077287  0.55483235     0.12800
C804        C  0.94920726  0.30094622  0.62663769    -0.22700
H805        H  0.95791307  0.35912672  0.66904433     0.08500
C806        C  0.97697970  0.43916301  0.66541366     0.04800
C807        C  0.97926395  0.46549084  0.69383338    -0.19900
C808        C  0.00420564  0.46619123  0.72465230    -0.12200
C809        C  0.52872694  0.43836366  0.72429343     0.13500
C810        C  0.52539843  0.41192457  0.69580071    -0.22600
C811        C  0.94993418  0.44054805  0.63363788    -0.05700
H812        H  0.96062177  0.48585453  0.69237094     0.15000
C813        C  0.55932978  0.43410712  0.75138571    -0.15900
H814        H  0.54299941  0.39051909  0.69580803     0.09400
H815        H  0.93097476  0.29912328  0.60146246     0.07200
H816        H  0.93434895  0.30613615  0.65471092     0.08400
H817        H  0.96250961  0.27607975  0.63048416     0.07500
H818        H  0.56526756  0.41150958  0.62389038     0.02300
H819        H  0.53484872  0.43357041  0.59253673     0.02800
H820        H  0.56426484  0.40345616  0.57048393     0.06300
H821        H  0.93400187  0.46394208  0.63641473     0.05300
H822        H  0.93310335  0.41801323  0.63665661    -0.00500
H823        H  0.46192444  0.44049919  0.60310175     0.01000
H824        H  0.07786267  0.41545743  0.73857691     0.04700
H825        H  0.55187460  0.42303166  0.78085462     0.06600
H826        H  0.57438888  0.45754614  0.75493859     0.07500
C827        C  0.98384414  0.11265149  0.60079319    -0.22100
C828        C  0.50002816  0.11618809  0.63795531     0.09800
C829        C  0.51567136  0.14742497  0.64770565     0.10200
C830        C  0.51484911  0.17457311  0.61978998    -0.17000
C831        C  0.99819730  0.17126069  0.58270830    -0.27500
C832        C  0.98269712  0.13973139  0.57301614     0.18600
C833        C  0.00021732  0.08675728  0.66622774     0.12500
C834        C  0.53291373  0.15205712  0.68769837    -0.11800
H835        H  0.52686699  0.19861186  0.62710982     0.12800
C836        C  0.96570548  0.13316792  0.53326387    -0.22700
H837        H  0.97209864  0.08848122  0.59336164     0.08500
C838        C  0.97301280  0.08055481  0.69271276     0.04800
C839        C  0.97435774  0.05245244  0.71900343    -0.19900
C840        C  0.00317648  0.03035533  0.72178288    -0.12200
C841        C  0.52943898  0.03603274  0.69185965     0.13500
C842        C  0.52754559  0.06410858  0.66536412    -0.22600
C843        C  0.94222927  0.10358697  0.69297853    -0.05700
H844        H  0.95170753  0.04801061  0.73661669     0.15000
C845        C  0.56025861  0.01375513  0.68561949    -0.15900
H846        H  0.54784383  0.06847533  0.64357607     0.09400
H847        H  0.93875542  0.12637120  0.53870998     0.07200
H848        H  0.97861314  0.11157568  0.51753609     0.08400
H849        H  0.96641838  0.15548323  0.51285119     0.07500
H850        H  0.55387102  0.13319581  0.69060334     0.02300
H851        H  0.51436136  0.14811688  0.71275131     0.02800
H852        H  0.54369142  0.17809375  0.69072185     0.06300
H853        H  0.92304844  0.09546294  0.71582662     0.05300
H854        H  0.93014152  0.10320034  0.66283741    -0.00500
H855        H  0.94984072  0.13016328  0.70017605     0.01000
H856        H  0.55935652  0.00159500  0.65532637     0.04700
H857        H  0.56270532  0.99372383  0.70819988     0.06600
H858        H  0.58352867  0.02952804  0.68745668     0.07500
O859        O  0.97014975  0.71291018  0.54188945    -0.72600
O860        O  0.97090732  0.78767376  0.45792144    -0.73600
O861        O  0.97001835  0.71504970  0.45633323    -0.62200
O862        O  0.97030897  0.78589462  0.54358669    -0.70600
O863        O  0.52650217  0.78589199  0.54270048    -0.70200
O864        O  0.52630866  0.71426721  0.45556089    -0.61400
O865        O  0.52687980  0.78653316  0.45739121    -0.73900
O866        O  0.52642736  0.71270735  0.54172396    -0.72700
Cu867      Cu  0.96839865  0.75039703  0.50005994     1.04600
Cu868      Cu  0.52848636  0.74978991  0.49945008     1.04300
C869        C  0.99823361  0.70053197  0.55432384     0.93600
C870        C  0.49918147  0.79904380  0.44427235     0.92700
C871        C  0.49803128  0.70372924  0.44192040     0.84900
C872        C  0.99833062  0.79764628  0.55636915     0.91100
C873        C  0.00010616  0.00186832  0.24834482    -0.02200
C874        C  0.00280485  0.99895769  0.75272431    -0.02200
O875        O  0.71531716  0.52478985  0.04525483    -0.72600
O876        O  0.78525395  0.52657096  0.95592449    -0.73600
O877        O  0.71320201  0.52545307  0.95975104    -0.62200
O878        O  0.78706659  0.52619590  0.04154510    -0.70600
O879        O  0.78782288  0.96979513  0.04252655    -0.70200
O880        O  0.71507001  0.96878065  0.95799744    -0.61400
O881        O  0.78726538  0.96988613  0.95695167    -0.73900
O882        O  0.71570672  0.96809157  0.04372607    -0.72700
Cu883      Cu  0.75015819  0.52771227  0.00057721     1.04600
Cu884      Cu  0.75150253  0.96714754  0.00024116     1.04300
C885        C  0.70449521  0.49608311  0.05849086     0.93600
C886        C  0.79758726  0.49836712  0.94277736     0.92700
C887        C  0.70244658  0.49708849  0.94593710     0.86900
C888        C  0.79924827  0.49828306  0.05528436     0.91100
C889        C  0.64599140  0.98030657  0.85549398    -0.22100
C890        C  0.61733125  0.49971437  0.86622517     0.09800
C891        C  0.61682590  0.51810965  0.90282115     0.10200
C892        C  0.64526730  0.51693534  0.92781127    -0.17000
C893        C  0.67403846  0.49746186  0.91728923    -0.27500
C894        C  0.67456041  0.97911996  0.88041807     0.18600
C895        C  0.58819373  0.50073148  0.83847613     0.12500
C896        C  0.58623183  0.53885232  0.91548557    -0.11800
H897        H  0.64486935  0.53092198  0.95609838     0.12800
C898        C  0.70503266  0.95922642  0.86547304    -0.22700
H899        H  0.64624133  0.96641061  0.82713756     0.08500
C900        C  0.58637449  0.52466803  0.80697979     0.04800
C901        C  0.55838655  0.52451078  0.78128922    -0.19900
C902        C  0.53213640  0.99989507  0.78456436    -0.12200
C903        C  0.53339209  0.97740305  0.81917182     0.13500
C904        C  0.56164987  0.97794810  0.84468051    -0.22600
C905        C  0.61410985  0.55055408  0.80050788    -0.05700
H906        H  0.55750276  0.54442961  0.75890988     0.15000
C907        C  0.50609951  0.95179987  0.83015471    -0.15900
H908        H  0.56308321  0.96045160  0.87008160     0.09400
H909        H  0.71277819  0.96889776  0.83517923     0.07200
H910        H  0.69839689  0.93176669  0.86284400     0.08400
H911        H  0.72731223  0.96151809  0.88529949     0.07500
H912        H  0.56384827  0.52191235  0.91851186     0.02300
H913        H  0.58095230  0.55880968  0.89247785     0.02800
H914        H  0.59007782  0.55173068  0.94497853     0.06300
H915        H  0.60889686  0.56762293  0.77441414     0.05300
H916        H  0.63853266  0.53717870  0.79450893    -0.00500
H917        H  0.61658500  0.56670614  0.82787034     0.01000
H918        H  0.51494228  0.93300017  0.85297936     0.04700
H919        H  0.49823312  0.93679914  0.80353723     0.06600
H920        H  0.48403167  0.96504518  0.84408910     0.07500
C921        C  0.93370073  0.52529628  0.83333212    -0.22100
C922        C  0.91030437  0.99896767  0.83022054     0.09800
C923        C  0.91537020  0.97321386  0.80128997     0.10200
C924        C  0.94457998  0.97374706  0.77675861    -0.17000
C925        C  0.96912425  0.00025560  0.77899724    -0.27500
C926        C  0.96251647  0.52687722  0.80819387     0.18600
C927        C  0.88120573  0.99830940  0.85875932     0.12500
C928        C  0.89003092  0.94476465  0.79667338    -0.11800
H929        H  0.94835736  0.95190023  0.75748573     0.12800
C930        C  0.98440549  0.55799235  0.81438495    -0.22700
H931        H  0.92931298  0.54508394  0.85577354     0.08500
C932        C  0.88299642  0.98014260  0.89551642     0.04800
C933        C  0.85483385  0.98009994  0.92170959    -0.19900
C934        C  0.82528170  0.49847620  0.91248094    -0.12200
C935        C  0.82355438  0.51683732  0.87561314     0.13500
C936        C  0.85169141  0.51653262  0.84922924    -0.22600
C937        C  0.91489315  0.96149527  0.90747069    -0.05700
H938        H  0.85618962  0.96630577  0.95012056     0.15000
C939        C  0.79232841  0.53602714  0.86242763    -0.15900
H940        H  0.85055032  0.53044386  0.82088092     0.09400
H941        H  0.99590391  0.55691475  0.84485315     0.07200
H942        H  0.96846600  0.58141698  0.81233834     0.08400
H943        H  0.00471635  0.56123640  0.79179389     0.07500
H944        H  0.86492551  0.95571874  0.78886185     0.02300
H945        H  0.88760947  0.93017128  0.82533569     0.02800
H946        H  0.89760711  0.92658054  0.77240307     0.06300
H947        H  0.91207109  0.94889030  0.93742699     0.05300
H948        H  0.93620462  0.97985176  0.90919898    -0.00500
H949        H  0.92130287  0.94151735  0.88483574     0.01000
H950        H  0.79826890  0.56364656  0.85942269     0.04700
H951        H  0.77057860  0.53319106  0.88357941     0.06600
H952        H  0.78414961  0.52623125  0.83260619     0.07500
C953        C  0.57346640  0.52555092  0.17213023    -0.22100
C954        C  0.59496161  0.99740553  0.17527427     0.09800
C955        C  0.58798770  0.97204838  0.20415427     0.10200
C956        C  0.55816625  0.97431718  0.22751483    -0.17000
C957        C  0.53398622  0.00113351  0.22251524    -0.27500
C958        C  0.54337698  0.52808591  0.19490378     0.18600
C959        C  0.62398871  0.99479572  0.14674365     0.12500
C960        C  0.61243009  0.94287973  0.21088724    -0.11800
H961        H  0.55465876  0.95488953  0.25026448     0.12800
C962        C  0.52236024  0.55957243  0.18615481    -0.22700
H963        H  0.57972272  0.54540104  0.15036556     0.08500
C964        C  0.62138061  0.97624174  0.11036008     0.04800
C965        C  0.64866792  0.97628535  0.08281585    -0.19900
C966        C  0.67803392  0.49518293  0.09029640    -0.12200
C967        C  0.68074425  0.51351575  0.12701118     0.13500
C968        C  0.65352584  0.51314564  0.15469903    -0.22600
C969        C  0.58932839  0.95752465  0.09992040    -0.05700
H970        H  0.64659823  0.96243959  0.05457354     0.15000
C971        C  0.71206423  0.53301344  0.13853584    -0.15900
H972        H  0.65526510  0.52745947  0.18265167     0.09400
H973        H  0.51886420  0.56208446  0.15299254     0.07200
H974        H  0.53569670  0.58260500  0.19724814     0.08400
H975        H  0.49673839  0.55918045  0.19917025     0.07500
H976        H  0.63740217  0.95315426  0.21992747     0.02300
H977        H  0.61573702  0.92778608  0.18275024     0.02800
H978        H  0.60342218  0.92529024  0.23507223     0.06300
H979        H  0.59137695  0.94485942  0.06994983     0.05300
H980        H  0.56774539  0.97583152  0.09900903    -0.00500
H981        H  0.58383733  0.93756764  0.12289049     0.01000
H982        H  0.70575521  0.56060251  0.14151966     0.04700
H983        H  0.73320714  0.53021086  0.11648013     0.06600
H984        H  0.72136368  0.52344650  0.16804799     0.07500
C985        C  0.86766365  0.52743509  0.12908022    -0.22100
C986        C  0.88143217  0.99603014  0.14071491     0.09800
C987        C  0.86753199  0.96550997  0.12591990     0.10200
C988        C  0.84065241  0.96717664  0.09853257    -0.17000
C989        C  0.82701485  0.49868455  0.08569544    -0.27500
C990        C  0.84061895  0.52937500  0.10192968     0.18600
C991        C  0.91124599  0.99595915  0.16741249     0.12500
C992        C  0.88112591  0.93123084  0.13908689    -0.11800
H993        H  0.83046261  0.94351821  0.08693409     0.12800
C994        C  0.82730346  0.56442294  0.09120439    -0.22700
H995        H  0.87857263  0.55067000  0.14102475     0.08500
C996        C  0.94424368  0.99668127  0.15139231     0.04800
C997        C  0.97177001  0.99766798  0.17763826    -0.19900
C998        C  0.96788663  0.00030313  0.22040593    -0.12200
C999        C  0.93362774  0.49848813  0.23593252     0.13500
C1000       C  0.90630876  0.49612227  0.20918712    -0.22600
C1001       C  0.95048826  0.99640177  0.10629376    -0.05700
H1002       H  0.99636073  0.99533908  0.16354682     0.15000
C1003       C  0.92359201  0.49956767  0.28011775    -0.15900
H1004       H  0.88058759  0.49518729  0.22109366     0.09400
H1005       H  0.84075804  0.58498648  0.10758952     0.07200
H1006       H  0.80003233  0.56643215  0.09957057     0.08400
H1007       H  0.83098105  0.56928689  0.05838062     0.07500
H1008       H  0.87837397  0.92863738  0.17239441     0.02300
H1009       H  0.90833627  0.92887326  0.13065688     0.02800
H1010       H  0.86733550  0.90981577  0.12476378     0.06300
H1011       H  0.97794580  0.99722583  0.09856945     0.05300
H1012       H  0.93820182  0.01906558  0.09235932    -0.00500
H1013       H  0.93983332  0.97285229  0.09289785     0.01000
H1014       H  0.90406446  0.51976327  0.28495751     0.04700
H1015       H  0.94425887  0.50586819  0.30058551     0.06600
H1016       H  0.91273914  0.47454376  0.28926827     0.07500
C1017       C  0.52763090  0.87065531  0.37229545    -0.22100
C1018       C  0.49643514  0.88182786  0.35752308     0.09800
C1019       C  0.96647363  0.86519195  0.36975205     0.10200
C1020       C  0.96832890  0.83805041  0.39746238    -0.17000
C1021       C  0.99953056  0.82701901  0.41341397    -0.27500
C1022       C  0.52976790  0.84352666  0.40001107     0.18600
C1023       C  0.49579654  0.91203609  0.33053884     0.12500
C1024       C  0.93252450  0.87652191  0.35403508    -0.11800
H1025       H  0.94506367  0.82565065  0.40694754     0.12800
C1026       C  0.56448476  0.83350481  0.41473105    -0.22700
H1027       H  0.55045220  0.88373153  0.36243370     0.08500
C1028       C  0.49671831  0.94526560  0.34623511     0.04800
C1029       C  0.49706507  0.97318767  0.31974081    -0.19900
C1030       C  0.99715252  0.96946829  0.27693608    -0.12200
C1031       C  0.99381308  0.93508497  0.26183397     0.13500
C1032       C  0.99406969  0.90726893  0.28887588    -0.22600
C1033       C  0.49707127  0.95131582  0.39127599    -0.05700
H1034       H  0.49668241  0.99802299  0.33364886     0.15000
C1035       C  0.98933978  0.92631944  0.21767091    -0.15900
H1036       H  0.99242302  0.88134662  0.27752704     0.09400
H1037       H  0.58474127  0.84950515  0.40094263     0.07200
H1038       H  0.57008262  0.80654586  0.40644473     0.08400
H1039       H  0.56580277  0.83689113  0.44799561     0.07500
H1040       H  0.93214217  0.87387329  0.32063009     0.02300
H1041       H  0.92784866  0.90368299  0.36218778     0.02800
H1042       H  0.91151570  0.86098414  0.36689366     0.06300
H1043       H  0.49739420  0.97898379  0.39878763     0.05300
H1044       H  0.51997951  0.93933319  0.40450508    -0.00500
H1045       H  0.47410714  0.93996328  0.40548772     0.01000
H1046       H  0.99103602  0.89833902  0.21225835     0.04700
H1047       H  0.00901043  0.93812979  0.19824004     0.06600
H1048       H  0.96373556  0.93413443  0.20773063     0.07500
C1049       C  0.51492384  0.65401562  0.34498735    -0.22100
C1050       C  0.99761494  0.62361251  0.35363006     0.09800
C1051       C  0.97987429  0.62006747  0.39059917     0.10200
C1052       C  0.97934389  0.64737897  0.41789519    -0.17000
C1053       C  0.99750846  0.67744371  0.41006808    -0.27500
C1054       C  0.51509956  0.68111644  0.37277974     0.18600
C1055       C  0.99925230  0.59521575  0.32426858     0.12500
C1056       C  0.96249628  0.58708053  0.40185066    -0.11800
H1057       H  0.96537746  0.64480498  0.44598481     0.12800
C1058       C  0.53326899  0.71344696  0.36068260    -0.22700
H1059       H  0.52838748  0.65657343  0.31638254     0.08500
C1060       C  0.97333931  0.58959861  0.29647456     0.04800
C1061       C  0.97496490  0.56077917  0.27143694    -0.19900
C1062       C  0.00165421  0.53624606  0.27349230    -0.12200
C1063       C  0.52958048  0.54476034  0.29933617     0.13500
C1064       C  0.52725303  0.57343976  0.32476889    -0.22600
C1065       C  0.94395458  0.61422682  0.29305747    -0.05700
H1066       H  0.95480903  0.55813183  0.25000465     0.15000
C1067       C  0.56232358  0.52455336  0.30135726    -0.15900
H1068       H  0.54757541  0.57909179  0.34551371     0.09400
H1069       H  0.52270794  0.72318700  0.33186284     0.07200
H1070       H  0.56066423  0.70788265  0.35611149     0.08400
H1071       H  0.53059817  0.73418465  0.38327721     0.07500
H1072       H  0.98135494  0.56591283  0.40222025     0.02300
H1073       H  0.94257206  0.58102819  0.37963838     0.02800
H1074       H  0.95035377  0.58852788  0.43227551     0.06300
H1075       H  0.92580396  0.60624531  0.26948021     0.05300
H1076       H  0.95353430  0.64001595  0.28498125    -0.00500
H1077       H  0.92990281  0.61580531  0.32223000     0.01000
H1078       H  0.57713681  0.52803403  0.27302603     0.04700
H1079       H  0.55780599  0.49713581  0.30724634     0.06600
H1080       H  0.57889674  0.53361421  0.32602424     0.07500
C1081       C  0.97555368  0.85721183  0.64378193    -0.22100
C1082       C  0.49923537  0.88333088  0.63766064     0.09800
C1083       C  0.52278877  0.88100641  0.60539133     0.10200
C1084       C  0.52217000  0.85241725  0.57988257    -0.17000
C1085       C  0.99829334  0.82627141  0.58560625    -0.27500
C1086       C  0.97463630  0.82870447  0.61804057     0.18600
C1087       C  0.50018663  0.91202221  0.66674950     0.12500
C1088       C  0.54825015  0.90892183  0.59759924    -0.11800
H1089       H  0.54006367  0.85077342  0.55483387     0.12800
C1090       C  0.94918969  0.80092674  0.62660791    -0.22700
H1091       H  0.95789500  0.85909283  0.66904271     0.08500
C1092       C  0.97695358  0.93913189  0.66544099     0.04800
C1093       C  0.97924447  0.96546467  0.69385402    -0.19900
C1094       C  0.00419447  0.96617181  0.72466295    -0.12200
C1095       C  0.52871676  0.93834500  0.72430090     0.13500
C1096       C  0.52538382  0.91190252  0.69581280    -0.22600
C1097       C  0.94989622  0.94050859  0.63367914    -0.05700
H1098       H  0.96060091  0.98582745  0.69239422     0.15000
C1099       C  0.55932667  0.93409458  0.75138328    -0.15900
H1100       H  0.54298812  0.89049961  0.69581571     0.09400
H1101       H  0.93095998  0.79911349  0.60142865     0.07200
H1102       H  0.93432850  0.80610884  0.65468097     0.08400
H1103       H  0.96248969  0.77605797  0.63044533     0.07500
H1104       H  0.56524905  0.91149555  0.62391081     0.02300
H1105       H  0.53482612  0.93356181  0.59256792     0.02800
H1106       H  0.56424445  0.90345692  0.57050151     0.06300
H1107       H  0.93396132  0.96390053  0.63645996     0.05300
H1108       H  0.93306954  0.91797176  0.63671127    -0.00500
H1109       H  0.46187523  0.94045729  0.60313687     0.01000
H1110       H  0.07785683  0.91544257  0.73857337     0.04700
H1111       H  0.55187915  0.92302526  0.78085805     0.06600
H1112       H  0.57438606  0.95753489  0.75492405     0.07500
C1113       C  0.98383941  0.61265679  0.60078694    -0.22100
C1114       C  0.50004310  0.61619334  0.63793684     0.09800
C1115       C  0.51570276  0.64742594  0.64766800     0.10200
C1116       C  0.51487861  0.67456883  0.61974535    -0.17000
C1117       C  0.99820546  0.67125790  0.58267712    -0.27500
C1118       C  0.98268655  0.63973321  0.57300495     0.18600
C1119       C  0.00023233  0.58676855  0.66621894     0.12500
C1120       C  0.53296156  0.65206068  0.68764999    -0.11800
H1121       H  0.52690975  0.69860388  0.62705107     0.12800
C1122       C  0.96566633  0.63317016  0.53327030    -0.22700
H1123       H  0.97208037  0.58848995  0.59337022     0.08500
C1124       C  0.97302907  0.58057354  0.69270869     0.04800
C1125       C  0.97437183  0.55247456  0.71900506    -0.19900
C1126       C  0.00318746  0.53037385  0.72178642    -0.12200
C1127       C  0.52945348  0.53604927  0.69186655     0.13500
C1128       C  0.52756068  0.56411995  0.66536320    -0.22600
C1129       C  0.94224939  0.60361088  0.69297437    -0.05700
H1130       H  0.95172170  0.54803751  0.73662007     0.15000
C1131       C  0.56027537  0.51377291  0.68563568    -0.15900
H1132       H  0.54785965  0.56848265  0.64357485     0.09400
H1133       H  0.93871798  0.62638095  0.53874359     0.07200
H1134       H  0.97855779  0.61157260  0.51753406     0.08400
H1135       H  0.96636969  0.65548280  0.51285339     0.07500
H1136       H  0.55391339  0.63319270  0.69055028     0.02300
H1137       H  0.51441647  0.64813262  0.71271343     0.02800
H1138       H  0.54374953  0.67809412  0.69065979     0.06300
H1139       H  0.92307022  0.59549423  0.71582815     0.05300
H1140       H  0.93015738  0.60322110  0.66283585    -0.00500
H1141       H  0.94986660  0.63018712  0.70016389     0.01000
H1142       H  0.55937623  0.50160606  0.65534615     0.04700
H1143       H  0.56272292  0.49374700  0.70822272     0.06600
H1144       H  0.58354390  0.52954836  0.68747023     0.07500
loop_ 
_geom_bond_atom_site_label_1 
_geom_bond_atom_site_label_2 
_geom_bond_distance 
_geom_bond_site_symmetry_2 
_ccdc_geom_bond_type 
O1           Cu9   2.016       .  S
O1           C11   1.279       .  A
O2           Cu9   2.017       .  S
O2          C584   1.280       .  A
O3           Cu9   2.002       .  S
O3          C585   1.276       .  A
O4           Cu9   2.004       .  S
O4           C14   1.276       .  A
O5          Cu10   2.012       .  S
O5          C586   1.279   1_455  A
O6          Cu10   2.013       .  S
O6           C13   1.279   1_455  A
O7          Cu10   2.000       .  S
O7           C12   1.275   1_455  A
O8          Cu10   2.014       .  S
O8          C583   1.278   1_455  A
Cu9        Cu582   2.371       .  S
Cu10       Cu581   2.371   1_455  S
C11         O580   1.278       .  A
C11         C259   1.479       .  S
C12         O574   1.280       .  A
C12         C735   1.495       .  S
C13         O575   1.276       .  A
C13         C767   1.473       .  S
C14         O577   1.279       .  A
C14         C227   1.480       .  S
C15         C140   1.581       .  S
C15         C172   1.584       .  S
C15         C671   1.578       .  S
C15         C490   1.584       .  S
C16          C67   1.580       .  S
C16         C236   1.584       .  S
C16         C616   1.574       .  S
C16         C554   1.597       .  S
O17         Cu25   2.010       .  S
O17          C27   1.278   1_545  A
O18         Cu25   2.013   1_556  S
O18          C28   1.278   1_545  A
O19         Cu25   2.001   1_556  S
O19          C29   1.277   1_545  A
O20         Cu25   2.001       .  S
O20          C30   1.276   1_545  A
O21         Cu26   2.017       .  S
O21         C316   1.280       .  A
O22         Cu26   2.017   1_556  S
O22         C315   1.279       .  A
O23         Cu26   2.002   1_556  S
O23         C314   1.277       .  A
O24         Cu26   2.005       .  S
O24         C313   1.277       .  A
Cu25       Cu312   2.371   1_545  S
Cu26       Cu311   2.371       .  S
C27         O310   1.277       .  A
C27         C108   1.474       .  S
C28         O309   1.277       .  A
C28          C76   1.474       .  S
C29         O308   1.279       .  A
C29          C35   1.476       .  S
C30         O307   1.280       .  A
C30         C131   1.496       .  S
C31          C36   1.404       .  A
C31         C318   1.402       .  A
C31          H41   1.085       .  S
C32          C37   1.479   1_565  S
C32          C33   1.409   1_565  A
C32         C317   1.402       .  A
C33          C38   1.507       .  S
C33          C34   1.402       .  A
C34          C35   1.405   1_545  A
C34          H39   1.084       .  S
C35         C322   1.417       .  A
C36          C40   1.508       .  S
C36         C321   1.417       .  A
C37          C42   1.402       .  A
C37         C332   1.392   1_545  A
C38          H54   1.110       .  S
C38          H55   1.110       .  S
C38          H56   1.111       .  S
C40          H51   1.111       .  S
C40          H52   1.110       .  S
C40          H53   1.107       .  S
C42          C47   1.508       .  S
C42          C43   1.401       .  A
C43         C330   1.421   1_545  A
C43          H48   1.074       .  S
C44         C588   1.574       .  S
C44          C45   1.444       .  A
C44         C329   1.421       .  A
C45          C49   1.515       .  S
C45          C46   1.406       .  A
C46         C323   1.392       .  A
C46          H50   1.085       .  S
C47          H57   1.111       .  S
C47          H58   1.110       .  S
C47          H59   1.110       .  S
C49          H60   1.111       .  S
C49          H61   1.107   1_455  S
C49          H62   1.107   1_455  S
C63          C68   1.402       .  A
C63         C350   1.392   1_545  A
C63          H73   1.085       .  S
C64          C69   1.478       .  S
C64          C65   1.402       .  A
C64         C349   1.392       .  A
C65          C70   1.509       .  S
C65          C66   1.402       .  A
C66          C67   1.425       .  A
C66          H71   1.075       .  S
C67         C354   1.442       .  A
C68          C72   1.511       .  S
C68         C353   1.442       .  A
C69          C74   1.410       .  A
C69         C364   1.401       .  A
C70          H86   1.110       .  S
C70          H87   1.109       .  S
C70          H88   1.111       .  S
C72          H83   1.110       .  S
C72          H84   1.111       .  S
C72          H85   1.097       .  S
C74          C79   1.508       .  S
C74          C75   1.401       .  A
C75         C362   1.404       .  A
C75          H80   1.085       .  S
C76          C77   1.416   1_565  A
C76         C361   1.404       .  A
C77          C81   1.508       .  S
C77          C78   1.404       .  A
C78         C355   1.401   1_545  A
C78          H82   1.085       .  S
C79          H89   1.111       .  S
C79          H90   1.110       .  S
C79          H91   1.109       .  S
C81          H92   1.110       .  S
C81          H93   1.107       .  S
C81          H94   1.111       .  S
C95         C100   1.402       .  A
C95         C382   1.391   1_545  A
C95         H105   1.085       .  S
C96         C101   1.479       .  S
C96          C97   1.402       .  A
C96         C381   1.391       .  A
C97         C102   1.508       .  S
C97          C98   1.403       .  A
C98          C99   1.425       .  A
C98         H103   1.077       .  S
C99         C587   1.578       .  S
C99         C386   1.441       .  A
C100        C104   1.511       .  S
C100        C385   1.441       .  A
C101        C106   1.411       .  A
C101        C396   1.401       .  A
C102        H118   1.110       .  S
C102        H119   1.109       .  S
C102        H120   1.111       .  S
C104        H115   1.111       .  S
C104        H116   1.110       .  S
C104        H117   1.094   1_455  S
C106        C111   1.508       .  S
C106        C107   1.403       .  A
C107        C394   1.404       .  A
C107        H112   1.084       .  S
C108        C109   1.416   1_565  A
C108        C393   1.404       .  A
C109        C113   1.508       .  S
C109        C110   1.404       .  A
C110        C387   1.401   1_545  A
C110        H114   1.084       .  S
C111        H121   1.111       .  S
C111        H122   1.110       .  S
C111        H123   1.109       .  S
C113        H124   1.110       .  S
C113        H125   1.107       .  S
C113        H126   1.110       .  S
C127        C132   1.404       .  A
C127        C414   1.397   1_545  A
C127        H137   1.084       .  S
C128        C133   1.479       .  S
C128        C129   1.407       .  A
C128        C413   1.397       .  A
C129        C134   1.507       .  S
C129        C130   1.404       .  A
C130        C417   1.411       .  A
C130        H135   1.083       .  S
C131        C132   1.425   1_565  A
C131        C416   1.411       .  A
C132        C136   1.509       .  S
C133        C138   1.400       .  A
C133        C428   1.393       .  A
C134        H150   1.110       .  S
C134        H151   1.110       .  S
C134        H152   1.111       .  S
C136        H147   1.111       .  S
C136        H148   1.110       .  S
C136        H149   1.110       .  S
C138        C143   1.509       .  S
C138        C139   1.399       .  A
C139        C140   1.425       .  A
C139        H144   1.075       .  S
C140        C427   1.442       .  A
C141        C145   1.510       .  S
C141        C142   1.406       .  A
C141        C426   1.442   1_565  A
C142        C419   1.393       .  A
C142        H146   1.085       .  S
C143        H153   1.111       .  S
C143        H154   1.110       .  S
C143        H155   1.109       .  S
C145        H156   1.111   1_565  S
C145        H157   1.095   1_565  S
C145        H158   1.110       .  S
C159        C160   1.397   1_455  A
C159        C164   1.404       .  A
C159        H169   1.084       .  S
C160        C165   1.480       .  S
C160        C733   1.407       .  A
C161        C166   1.507       .  S
C161        C162   1.404       .  A
C161        C732   1.407       .  A
C162        C163   1.410       .  A
C162        H167   1.083       .  S
C163        C584   1.495       .  S
C163        C736   1.425       .  A
C164        C168   1.509       .  S
C164        C735   1.425   1_455  A
C165        C170   1.401       .  A
C165        C746   1.393       .  A
C166        H182   1.110       .  S
C166        H183   1.110       .  S
C166        H184   1.111       .  S
C168        H179   1.111       .  S
C168        H180   1.110       .  S
C168        H181   1.110       .  S
C170        C175   1.509       .  S
C170        C171   1.399       .  A
C171        C744   1.423       .  A
C171        H176   1.076       .  S
C172        C173   1.442       .  A
C172        C743   1.423       .  A
C173        C177   1.513       .  S
C173        C174   1.407       .  A
C174        C737   1.393       .  A
C174        H178   1.084       .  S
C175        H185   1.111       .  S
C175        H186   1.110   1_655  S
C175        H187   1.110       .  S
C177        H188   1.111       .  S
C177        H189   1.105       .  S
C177        H190   1.107       .  S
C191        C196   1.404       .  A
C191        C764   1.402   1_455  A
C191        H201   1.085       .  S
C192        C197   1.477       .  S
C192        C193   1.409       .  A
C192        C763   1.402       .  A
C193        C198   1.508       .  S
C193        C194   1.399       .  A
C194        C195   1.402       .  A
C194        H199   1.080       .  S
C195        C585   1.473       .  S
C195        C768   1.416       .  A
C196        C200   1.508       .  S
C196        C767   1.416   1_455  A
C197        C202   1.401       .  A
C197        C778   1.392       .  A
C198        H214   1.110       .  S
C198        H215   1.109       .  S
C198        H216   1.111       .  S
C200        H211   1.111       .  S
C200        H212   1.110       .  S
C200        H213   1.107       .  S
C202        C207   1.509       .  S
C202        C203   1.400       .  A
C203        C204   1.423       .  A
C203        H208   1.077       .  S
C204        C301   1.584       .  S
C204        C777   1.443       .  A
C205        C209   1.513       .  S
C205        C206   1.405       .  A
C205        C776   1.443       .  A
C206        C769   1.392   1_455  A
C206        H210   1.085       .  S
C207        H217   1.111       .  S
C207        H218   1.110       .  S
C207        H219   1.109       .  S
C209        H220   1.107       .  S
C209        H221   1.105   1_545  S
C209        H222   1.111       .  S
C223        C228   1.405       .  A
C223        C796   1.401       .  A
C223        H233   1.084       .  S
C224        C229   1.480   1_655  S
C224        C225   1.410   1_655  A
C224        C795   1.401       .  A
C225        C230   1.507       .  S
C225        C226   1.402       .  A
C226        C799   1.405   1_455  A
C226        H231   1.084       .  S
C227        C228   1.417       .  A
C227        C798   1.405       .  A
C228        C232   1.507       .  S
C229        C238   1.391       .  A
C229        C806   1.399   1_455  A
C230        H246   1.110       .  S
C230        H247   1.110       .  S
C230        H248   1.111       .  S
C232        H243   1.109       .  S
C232        H244   1.111       .  S
C232        H245   1.111       .  S
C234        C239   1.507       .  S
C234        C235   1.399       .  A
C234        C801   1.399       .  A
C235        C236   1.425       .  A
C235        H240   1.083       .  S
C236        C809   1.452       .  A
C237        C241   1.520       .  S
C237        C238   1.408       .  A
C237        C808   1.452       .  A
C238        H242   1.085       .  S
C239        H249   1.111       .  S
C239        H250   1.110       .  S
C239        H823   1.110       .  S
C241        H253   1.103       .  S
C241        H254   1.102       .  S
C241        H824   1.111       .  S
H251        C811   1.110       .  S
H252        C813   1.111       .  S
C255        C260   1.402       .  A
C255        C828   1.399       .  A
C255        H265   1.085       .  S
C256        C833   1.482       .  S
C256        C257   1.411       .  A
C256        C827   1.399   1_455  A
C257        C262   1.506       .  S
C257        C258   1.407       .  A
C258        C831   1.404   1_455  A
C258        H263   1.084       .  S
C259        C260   1.418       .  A
C259        C830   1.404       .  A
C260        C264   1.506       .  S
C261        C828   1.482       .  S
C261        C266   1.400       .  A
C261        C842   1.392       .  A
C262        H278   1.110       .  S
C262        H279   1.111       .  S
C262        H280   1.110       .  S
C264        H275   1.110       .  S
C264        H276   1.111       .  S
C264        H277   1.103       .  S
C266        C271   1.508       .  S
C266        C267   1.402       .  A
C267        C268   1.428       .  A
C267        H272   1.076       .  S
C268        C302   1.597   1_545  S
C268        C841   1.443       .  A
C269        C273   1.505       .  S
C269        C270   1.406       .  A
C269        C840   1.443       .  A
C270        C833   1.392       .  A
C270        H274   1.085       .  S
C271        H281   1.111       .  S
C271        H282   1.110       .  S
C271        H283   1.110       .  S
C273        H284   1.111       .  S
C273        H285   1.086   1_545  S
C273        H286   1.111       .  S
O287       Cu295   2.016       .  S
O287        C297   1.279       .  A
O288       Cu295   2.017       .  S
O288        C870   1.280       .  A
O289       Cu295   2.002       .  S
O289        C871   1.276       .  A
O290       Cu295   2.004       .  S
O290        C300   1.276       .  A
O291       Cu296   2.012       .  S
O291        C872   1.279   1_455  A
O292       Cu296   2.014       .  S
O292        C299   1.279   1_455  A
O293       Cu296   2.000       .  S
O293        C298   1.275   1_455  A
O294       Cu296   2.014       .  S
O294        C869   1.278   1_455  A
Cu295      Cu868   2.371       .  S
Cu296      Cu867   2.371   1_455  S
C297        O866   1.278       .  A
C297        C545   1.479       .  S
C298        O860   1.280       .  A
C298       C1021   1.495       .  S
C299        O861   1.276       .  A
C299       C1053   1.473       .  S
C300        O863   1.279       .  A
C300        C513   1.480       .  S
C301        C957   1.578       .  S
C301        C426   1.581       .  S
C301        C458   1.584   1_545  S
C302        C902   1.574       .  S
C302        C353   1.580   1_565  S
C302        C522   1.584       .  S
O303       Cu311   2.010       .  S
O303        C313   1.278       .  A
O304       Cu311   2.013   1_556  S
O304        C314   1.278       .  A
O305       Cu311   2.001   1_556  S
O305        C315   1.277       .  A
O306       Cu311   2.001       .  S
O306        C316   1.276       .  A
O307       Cu312   2.017       .  S
O308       Cu312   2.017   1_556  S
O309       Cu312   2.002   1_556  S
O310       Cu312   2.005       .  S
C313        C394   1.474       .  S
C314        C362   1.474       .  S
C315        C321   1.476       .  S
C316        C417   1.496       .  S
C317        C322   1.404       .  A
C317        H327   1.085       .  S
C318        C323   1.479       .  S
C318        C319   1.409       .  A
C319        C324   1.507       .  S
C319        C320   1.402       .  A
C320        C321   1.405       .  A
C320        H325   1.084       .  S
C322        C326   1.508       .  S
C323        C328   1.402       .  A
C324        H340   1.110       .  S
C324        H341   1.110       .  S
C324        H342   1.111       .  S
C326        H337   1.111       .  S
C326        H338   1.110       .  S
C326        H339   1.107       .  S
C328        C333   1.508       .  S
C328        C329   1.401       .  A
C329        H334   1.075       .  S
C330        C874   1.574       .  S
C330        C331   1.444       .  A
C331        C335   1.515       .  S
C331        C332   1.406       .  A
C332        H336   1.085       .  S
C333        H343   1.111       .  S
C333        H344   1.110       .  S
C333        H345   1.110       .  S
C335        H346   1.111       .  S
C335        H347   1.107   1_455  S
C335        H348   1.107   1_455  S
C349        C354   1.402       .  A
C349        H359   1.085       .  S
C350        C355   1.478       .  S
C350        C351   1.402       .  A
C351        C356   1.509       .  S
C351        C352   1.402       .  A
C352        C353   1.425   1_565  A
C352        H357   1.075       .  S
C354        C358   1.511       .  S
C355        C360   1.409       .  A
C356        H372   1.110       .  S
C356        H373   1.109       .  S
C356        H374   1.111       .  S
C358        H369   1.110       .  S
C358        H370   1.111       .  S
C358        H371   1.097       .  S
C360        C365   1.508       .  S
C360        C361   1.401       .  A
C361        H366   1.085       .  S
C362        C363   1.416       .  A
C363        C367   1.508       .  S
C363        C364   1.404       .  A
C364        H368   1.085       .  S
C365        H375   1.111       .  S
C365        H376   1.110       .  S
C365        H377   1.109       .  S
C367        H378   1.110       .  S
C367        H379   1.107       .  S
C367        H380   1.111       .  S
C381        C386   1.402       .  A
C381        H391   1.085       .  S
C382        C387   1.479       .  S
C382        C383   1.402       .  A
C383        C388   1.508       .  S
C383        C384   1.403       .  A
C384        C385   1.425   1_565  A
C384        H389   1.077       .  S
C385        C873   1.578       .  S
C386        C390   1.511       .  S
C387        C392   1.411       .  A
C388        H404   1.110       .  S
C388        H405   1.109       .  S
C388        H406   1.111       .  S
C390        H401   1.111       .  S
C390        H402   1.110       .  S
C390        H403   1.094   1_455  S
C392        C397   1.508       .  S
C392        C393   1.402       .  A
C393        H398   1.084       .  S
C394        C395   1.416       .  A
C395        C399   1.508       .  S
C395        C396   1.404       .  A
C396        H400   1.084       .  S
C397        H407   1.111       .  S
C397        H408   1.110       .  S
C397        H409   1.109       .  S
C399        H410   1.110       .  S
C399        H411   1.107       .  S
C399        H412   1.110       .  S
C413        C418   1.404       .  A
C413        H423   1.084       .  S
C414        C419   1.479       .  S
C414        C415   1.407       .  A
C415        C420   1.507       .  S
C415        C416   1.404       .  A
C416        H421   1.083       .  S
C417        C418   1.425       .  A
C418        C422   1.509       .  S
C419        C424   1.400       .  A
C420        H436   1.110       .  S
C420        H437   1.110       .  S
C420        H438   1.111       .  S
C422        H433   1.111       .  S
C422        H434   1.110       .  S
C422        H435   1.110       .  S
C424        C429   1.509       .  S
C424        C425   1.399       .  A
C425        C426   1.425   1_565  A
C425        H430   1.075       .  S
C427        C431   1.510       .  S
C427        C428   1.406       .  A
C428        H432   1.085       .  S
C429        H439   1.111       .  S
C429        H440   1.110   1_565  S
C429        H441   1.109       .  S
C431        H442   1.111       .  S
C431        H443   1.095       .  S
C431        H444   1.110       .  S
C445        C446   1.397   1_455  A
C445        C450   1.404       .  A
C445        H455   1.084       .  S
C446        C451   1.480       .  S
C446       C1019   1.407       .  A
C447        C452   1.507       .  S
C447       C1018   1.407       .  A
C447        C448   1.404       .  A
C448        C449   1.410       .  A
C448        H453   1.083       .  S
C449        C870   1.495       .  S
C449       C1022   1.425       .  A
C450        C454   1.509       .  S
C450       C1021   1.425   1_455  A
C451        C456   1.401       .  A
C451       C1032   1.393       .  A
C452        H468   1.110       .  S
C452        H469   1.110       .  S
C452        H470   1.111       .  S
C454        H465   1.111       .  S
C454        H466   1.110       .  S
C454        H467   1.110       .  S
C456        C461   1.509       .  S
C456        C457   1.399       .  A
C457       C1030   1.423       .  A
C457        H462   1.075       .  S
C458       C1029   1.423       .  A
C458        C459   1.442       .  A
C459        C463   1.513       .  S
C459        C460   1.407       .  A
C460       C1023   1.393       .  A
C460        H464   1.084       .  S
C461        H471   1.111       .  S
C461        H472   1.110   1_655  S
C461        H473   1.110       .  S
C463        H474   1.111       .  S
C463        H475   1.105       .  S
C463        H476   1.107       .  S
C477       C1050   1.402   1_455  A
C477        C482   1.404       .  A
C477        H487   1.085       .  S
C478        C483   1.477       .  S
C478       C1049   1.402       .  A
C478        C479   1.409       .  A
C479        C484   1.508       .  S
C479        C480   1.399       .  A
C480        C481   1.402       .  A
C480        H485   1.080       .  S
C481        C871   1.473       .  S
C481       C1054   1.416       .  A
C482        C486   1.508       .  S
C482       C1053   1.416   1_455  A
C483        C488   1.401       .  A
C483       C1064   1.392       .  A
C484        H500   1.110       .  S
C484        H501   1.109       .  S
C484        H502   1.111       .  S
C486        H497   1.111       .  S
C486        H498   1.110       .  S
C486        H499   1.107       .  S
C488        C493   1.509       .  S
C488        C489   1.400       .  A
C489        C490   1.423       .  A
C489        H494   1.077       .  S
C490       C1063   1.443       .  A
C491        C495   1.513       .  S
C491       C1062   1.443       .  A
C491        C492   1.405       .  A
C492       C1055   1.392   1_455  A
C492        H496   1.085       .  S
C493        H503   1.111       .  S
C493        H504   1.110       .  S
C493        H505   1.109       .  S
C495        H506   1.107       .  S
C495        H507   1.105       .  S
C495        H508   1.111       .  S
C509       C1082   1.401       .  A
C509        C514   1.405       .  A
C509        H519   1.084       .  S
C510        C515   1.480   1_655  S
C510       C1081   1.401       .  A
C510        C511   1.410   1_655  A
C511        C516   1.507       .  S
C511        C512   1.402       .  A
C512       C1085   1.405   1_455  A
C512        H517   1.084       .  S
C513       C1084   1.405       .  A
C513        C514   1.417       .  A
C514        C518   1.507       .  S
C515       C1092   1.399   1_455  A
C515        C524   1.391       .  A
C516        H532   1.110       .  S
C516        H533   1.110       .  S
C516        H534   1.111       .  S
C518        H529   1.109       .  S
C518        H530   1.111       .  S
C518        H531   1.111       .  S
C520        C525   1.507       .  S
C520       C1087   1.399       .  A
C520        C521   1.399       .  A
C521        C522   1.425       .  A
C521        H526   1.083       .  S
C522       C1095   1.452       .  A
C523        C527   1.520       .  S
C523       C1094   1.452       .  A
C523        C524   1.408       .  A
C524        H528   1.085       .  S
C525        H535   1.111       .  S
C525        H536   1.110       .  S
C525       H1109   1.110       .  S
C527       H1110   1.111       .  S
C527        H539   1.103       .  S
C527        H540   1.102       .  S
H537       C1097   1.110       .  S
H538       C1099   1.111       .  S
C541       C1114   1.399       .  A
C541        C546   1.402       .  A
C541        H551   1.085       .  S
C542       C1119   1.482       .  S
C542       C1113   1.399   1_455  A
C542        C543   1.411       .  A
C543        C548   1.506       .  S
C543        C544   1.406       .  A
C544       C1117   1.404   1_455  A
C544        H549   1.084       .  S
C545       C1116   1.404       .  A
C545        C546   1.418       .  A
C546        C550   1.506       .  S
C547       C1114   1.482       .  S
C547        C552   1.400       .  A
C547       C1128   1.392       .  A
C548        H564   1.110       .  S
C548        H565   1.111       .  S
C548        H566   1.110       .  S
C550        H561   1.110       .  S
C550        H562   1.111       .  S
C550        H563   1.103       .  S
C552        C557   1.508       .  S
C552        C553   1.402       .  A
C553        C554   1.428       .  A
C553        H558   1.076       .  S
C554       C1127   1.443       .  A
C555        C559   1.505       .  S
C555       C1126   1.443       .  A
C555        C556   1.406       .  A
C556       C1119   1.392       .  A
C556        H560   1.085       .  S
C557        H567   1.111       .  S
C557        H568   1.110       .  S
C557        H569   1.110       .  S
C559        H570   1.111       .  S
C559        H571   1.086       .  S
C559        H572   1.111       .  S
O573       Cu581   2.016       .  S
O573        C583   1.279       .  A
O574       Cu581   2.017       .  S
O575       Cu581   2.002       .  S
O576       Cu581   2.004       .  S
O576        C586   1.276       .  A
O577       Cu582   2.012       .  S
O578       Cu582   2.013       .  S
O578        C585   1.279       .  A
O579       Cu582   2.000       .  S
O579        C584   1.275       .  A
O580       Cu582   2.014       .  S
C583        C831   1.479       .  S
C586        C799   1.480       .  S
C587        C712   1.581   1_455  S
C587        C744   1.584   1_455  S
C587       C1062   1.584       .  S
C588        C639   1.580   1_455  S
C588        C808   1.584       .  S
C588       C1126   1.597       .  S
O589       Cu597   2.010       .  S
O589        C599   1.278   1_545  A
O590       Cu597   2.013   1_556  S
O590        C600   1.278   1_545  A
O591       Cu597   2.001   1_556  S
O591        C601   1.277   1_545  A
O592       Cu597   2.001       .  S
O592        C602   1.276   1_545  A
O593       Cu598   2.017       .  S
O593        C888   1.280       .  A
O594       Cu598   2.017   1_556  S
O594        C887   1.279       .  A
O595       Cu598   2.002   1_556  S
O595        C886   1.277       .  A
O596       Cu598   2.005       .  S
O596        C885   1.277       .  A
Cu597      Cu884   2.371   1_545  S
Cu598      Cu883   2.371       .  S
C599        O882   1.277       .  A
C599        C680   1.474       .  S
C600        O881   1.277       .  A
C600        C648   1.474       .  S
C601        O880   1.279       .  A
C601        C607   1.476       .  S
C602        O879   1.280       .  A
C602        C703   1.496       .  S
C603        C890   1.402       .  A
C603        C608   1.404       .  A
C603        H613   1.085       .  S
C604        C609   1.479   1_565  S
C604        C889   1.402       .  A
C604        C605   1.409   1_565  A
C605        C610   1.507       .  S
C605        C606   1.402       .  A
C606        C607   1.405   1_545  A
C606        H611   1.084       .  S
C607        C894   1.417       .  A
C608        C612   1.508       .  S
C608        C893   1.417       .  A
C609        C614   1.402       .  A
C609        C904   1.392   1_545  A
C610        H626   1.110       .  S
C610        H627   1.110       .  S
C610        H628   1.111       .  S
C612        H623   1.111       .  S
C612        H624   1.110       .  S
C612        H625   1.107       .  S
C614        C619   1.508       .  S
C614        C615   1.401       .  A
C615        C902   1.421   1_545  A
C615        H620   1.074       .  S
C616        C901   1.421       .  A
C616        C617   1.444       .  A
C617        C621   1.515       .  S
C617        C618   1.406       .  A
C618        C895   1.392       .  A
C618        H622   1.085       .  S
C619        H629   1.111       .  S
C619        H630   1.110       .  S
C619        H631   1.110       .  S
C621        H632   1.111       .  S
C621        H633   1.107       .  S
C621        H634   1.107       .  S
C635        C922   1.392   1_545  A
C635        C640   1.402       .  A
C635        H645   1.085       .  S
C636        C641   1.478       .  S
C636        C921   1.392       .  A
C636        C637   1.402       .  A
C637        C642   1.509       .  S
C637        C638   1.402       .  A
C638        C639   1.425       .  A
C638        H643   1.075       .  S
C639        C926   1.442       .  A
C640        C644   1.511       .  S
C640        C925   1.442       .  A
C641        C646   1.410       .  A
C641        C936   1.401       .  A
C642        H658   1.110       .  S
C642        H659   1.109       .  S
C642        H660   1.111       .  S
C644        H655   1.110       .  S
C644        H656   1.111       .  S
C644        H657   1.097   1_655  S
C646        C651   1.508       .  S
C646        C647   1.401       .  A
C647        C934   1.404       .  A
C647        H652   1.085       .  S
C648        C933   1.404       .  A
C648        C649   1.416   1_565  A
C649        C653   1.508       .  S
C649        C650   1.404       .  A
C650        C927   1.401   1_545  A
C650        H654   1.085       .  S
C651        H661   1.111       .  S
C651        H662   1.110       .  S
C651        H663   1.109       .  S
C653        H664   1.110       .  S
C653        H665   1.107       .  S
C653        H666   1.111       .  S
C667        C954   1.391   1_545  A
C667        C672   1.402       .  A
C667        H677   1.085       .  S
C668        C673   1.479       .  S
C668        C953   1.391       .  A
C668        C669   1.402       .  A
C669        C674   1.508       .  S
C669        C670   1.403       .  A
C670        C671   1.425       .  A
C670        H675   1.077       .  S
C671        C958   1.441       .  A
C672        C676   1.511       .  S
C672        C957   1.441       .  A
C673        C678   1.411       .  A
C673        C968   1.401       .  A
C674        H690   1.110       .  S
C674        H691   1.109       .  S
C674        H692   1.111       .  S
C676        H687   1.111       .  S
C676        H688   1.110       .  S
C676        H689   1.094       .  S
C678        C683   1.508       .  S
C678        C679   1.403       .  A
C679        C966   1.404       .  A
C679        H684   1.084       .  S
C680        C965   1.404       .  A
C680        C681   1.416   1_565  A
C681        C685   1.508       .  S
C681        C682   1.404       .  A
C682        C959   1.401   1_545  A
C682        H686   1.084       .  S
C683        H693   1.111       .  S
C683        H694   1.110       .  S
C683        H695   1.109       .  S
C685        H696   1.110       .  S
C685        H697   1.107       .  S
C685        H698   1.110       .  S
C699        C986   1.397   1_545  A
C699        C704   1.404       .  A
C699        H709   1.084       .  S
C700        C705   1.479       .  S
C700        C985   1.397       .  A
C700        C701   1.407       .  A
C701        C706   1.507       .  S
C701        C702   1.404       .  A
C702        C989   1.411       .  A
C702        H707   1.083       .  S
C703        C988   1.411       .  A
C703        C704   1.425   1_565  A
C704        C708   1.509       .  S
C705        C710   1.400       .  A
C705       C1000   1.393       .  A
C706        H722   1.110       .  S
C706        H723   1.110       .  S
C706        H724   1.111       .  S
C708        H719   1.111       .  S
C708        H720   1.110       .  S
C708        H721   1.110       .  S
C710        C715   1.509       .  S
C710        C711   1.399       .  A
C711        C712   1.425       .  A
C711        H716   1.075       .  S
C712        C999   1.442       .  A
C713        C717   1.510       .  S
C713        C998   1.442   1_565  A
C713        C714   1.406       .  A
C714        C991   1.393       .  A
C714        H718   1.085       .  S
C715        H725   1.111       .  S
C715        H726   1.110       .  S
C715        H727   1.109       .  S
C717        H728   1.111   1_565  S
C717        H729   1.095   1_565  S
C717        H730   1.110       .  S
C731        C732   1.397       .  A
C731        C736   1.404       .  A
C731        H741   1.084       .  S
C732        C737   1.480       .  S
C733        C738   1.507       .  S
C733        C734   1.404       .  A
C734        C735   1.410       .  A
C734        H739   1.083       .  S
C736        C740   1.509       .  S
C737        C742   1.401       .  A
C738        H754   1.110       .  S
C738        H755   1.110       .  S
C738        H756   1.111       .  S
C740        H751   1.111       .  S
C740        H752   1.110       .  S
C740        H753   1.110       .  S
C742        C747   1.509       .  S
C742        C743   1.399       .  A
C743        H748   1.076       .  S
C744        C745   1.442       .  A
C745        C749   1.513       .  S
C745        C746   1.407       .  A
C746        H750   1.084       .  S
C747        H757   1.111       .  S
C747        H758   1.110       .  S
C747        H759   1.110       .  S
C749        H760   1.111       .  S
C749        H761   1.105   1_655  S
C749        H762   1.107       .  S
C763        C768   1.404       .  A
C763        H773   1.085       .  S
C764        C769   1.477       .  S
C764        C765   1.409       .  A
C765        C770   1.508       .  S
C765        C766   1.399       .  A
C766        C767   1.402       .  A
C766        H771   1.080       .  S
C768        C772   1.508       .  S
C769        C774   1.401       .  A
C770        H786   1.110       .  S
C770        H787   1.109       .  S
C770        H788   1.111       .  S
C772        H783   1.111       .  S
C772        H784   1.110       .  S
C772        H785   1.107       .  S
C774        C779   1.509       .  S
C774        C775   1.400       .  A
C775        C776   1.423   1_655  A
C775        H780   1.077       .  S
C776        C873   1.584       .  S
C777        C781   1.513       .  S
C777        C778   1.405       .  A
C778        H782   1.085       .  S
C779        H789   1.111       .  S
C779        H790   1.110       .  S
C779        H791   1.109       .  S
C781        H792   1.107       .  S
C781        H793   1.105   1_545  S
C781        H794   1.111       .  S
C795        C800   1.405       .  A
C795        H805   1.084       .  S
C796        C801   1.480       .  S
C796        C797   1.410       .  A
C797        C802   1.507       .  S
C797        C798   1.402       .  A
C798        H803   1.084       .  S
C799        C800   1.417       .  A
C800        C804   1.507       .  S
C801        C810   1.391       .  A
C802        H818   1.110       .  S
C802        H819   1.110       .  S
C802        H820   1.111       .  S
C804        H815   1.109       .  S
C804        H816   1.111       .  S
C804        H817   1.111       .  S
C806        C811   1.507       .  S
C806        C807   1.399       .  A
C807        C808   1.425   1_655  A
C807        H812   1.083       .  S
C809        C813   1.520       .  S
C809        C810   1.408       .  A
C810        H814   1.085       .  S
C811        H821   1.111       .  S
C811        H822   1.110       .  S
C813        H825   1.103       .  S
C813        H826   1.102       .  S
C827        C832   1.402       .  A
C827        H837   1.085       .  S
C828        C829   1.411       .  A
C829        C834   1.506       .  S
C829        C830   1.407       .  A
C830        H835   1.084       .  S
C831        C832   1.418       .  A
C832        C836   1.506       .  S
C833        C838   1.400   1_455  A
C834        H850   1.110       .  S
C834        H851   1.111       .  S
C834        H852   1.110       .  S
C836        H847   1.110       .  S
C836        H848   1.111       .  S
C836        H849   1.103       .  S
C838        C843   1.508       .  S
C838        C839   1.402       .  A
C839        C840   1.428   1_655  A
C839        H844   1.076       .  S
C840        C874   1.597   1_545  S
C841        C845   1.505       .  S
C841        C842   1.406       .  A
C842        H846   1.085       .  S
C843        H853   1.111       .  S
C843        H854   1.110       .  S
C843        H855   1.110       .  S
C845        H856   1.111       .  S
C845        H857   1.086   1_545  S
C845        H858   1.111       .  S
O859       Cu867   2.016       .  S
O859        C869   1.279       .  A
O860       Cu867   2.017       .  S
O861       Cu867   2.002       .  S
O862       Cu867   2.004       .  S
O862        C872   1.276       .  A
O863       Cu868   2.012       .  S
O864       Cu868   2.014       .  S
O864        C871   1.279       .  A
O865       Cu868   2.000       .  S
O865        C870   1.275       .  A
O866       Cu868   2.014       .  S
C869       C1117   1.479       .  S
C872       C1085   1.480       .  S
C873        C998   1.581   1_455  S
C873       C1030   1.584   1_445  S
C874        C925   1.580   1_465  S
C874       C1094   1.584       .  S
O875       Cu883   2.010       .  S
O875        C885   1.278       .  A
O876       Cu883   2.013   1_556  S
O876        C886   1.278       .  A
O877       Cu883   2.001   1_556  S
O877        C887   1.277       .  A
O878       Cu883   2.001       .  S
O878        C888   1.276       .  A
O879       Cu884   2.017       .  S
O880       Cu884   2.017   1_556  S
O881       Cu884   2.002   1_556  S
O882       Cu884   2.005       .  S
C885        C966   1.474       .  S
C886        C934   1.474       .  S
C887        C893   1.476       .  S
C888        C989   1.496       .  S
C889        C894   1.404       .  A
C889        H899   1.085       .  S
C890        C895   1.479       .  S
C890        C891   1.409       .  A
C891        C896   1.507       .  S
C891        C892   1.402       .  A
C892        C893   1.405       .  A
C892        H897   1.084       .  S
C894        C898   1.508       .  S
C895        C900   1.402       .  A
C896        H912   1.110       .  S
C896        H913   1.110       .  S
C896        H914   1.111       .  S
C898        H909   1.111       .  S
C898        H910   1.110       .  S
C898        H911   1.107       .  S
C900        C905   1.508       .  S
C900        C901   1.401       .  A
C901        H906   1.074       .  S
C902        C903   1.444       .  A
C903        C907   1.515       .  S
C903        C904   1.406       .  A
C904        H908   1.085       .  S
C905        H915   1.111       .  S
C905        H916   1.110       .  S
C905        H917   1.110       .  S
C907        H918   1.111       .  S
C907        H919   1.107       .  S
C907        H920   1.107       .  S
C921        C926   1.402       .  A
C921        H931   1.085       .  S
C922        C927   1.478       .  S
C922        C923   1.402       .  A
C923        C928   1.509       .  S
C923        C924   1.402       .  A
C924        C925   1.425   1_565  A
C924        H929   1.075       .  S
C926        C930   1.511       .  S
C927        C932   1.409       .  A
C928        H944   1.110       .  S
C928        H945   1.109       .  S
C928        H946   1.111       .  S
C930        H941   1.110       .  S
C930        H942   1.111       .  S
C930        H943   1.097   1_655  S
C932        C937   1.508       .  S
C932        C933   1.401       .  A
C933        H938   1.085       .  S
C934        C935   1.416       .  A
C935        C939   1.508       .  S
C935        C936   1.404       .  A
C936        H940   1.085       .  S
C937        H947   1.111       .  S
C937        H948   1.110       .  S
C937        H949   1.109       .  S
C939        H950   1.110       .  S
C939        H951   1.107       .  S
C939        H952   1.111       .  S
C953        C958   1.402       .  A
C953        H963   1.085       .  S
C954        C959   1.479       .  S
C954        C955   1.402       .  A
C955        C960   1.508       .  S
C955        C956   1.403       .  A
C956        C957   1.425   1_565  A
C956        H961   1.077       .  S
C958        C962   1.511       .  S
C959        C964   1.411       .  A
C960        H976   1.110       .  S
C960        H977   1.109       .  S
C960        H978   1.111       .  S
C962        H973   1.111       .  S
C962        H974   1.110       .  S
C962        H975   1.094       .  S
C964        C969   1.508       .  S
C964        C965   1.402       .  A
C965        H970   1.084       .  S
C966        C967   1.416       .  A
C967        C971   1.508       .  S
C967        C968   1.404       .  A
C968        H972   1.084       .  S
C969        H979   1.111       .  S
C969        H980   1.110       .  S
C969        H981   1.109       .  S
C971        H982   1.110       .  S
C971        H983   1.107       .  S
C971        H984   1.110       .  S
C985        C990   1.404       .  A
C985        H995   1.084       .  S
C986        C991   1.479       .  S
C986        C987   1.407       .  A
C987        C992   1.507       .  S
C987        C988   1.404       .  A
C988        H993   1.083       .  S
C989        C990   1.425       .  A
C990        C994   1.509       .  S
C991        C996   1.400       .  A
C992       H1008   1.110       .  S
C992       H1009   1.110       .  S
C992       H1010   1.111       .  S
C994       H1005   1.111       .  S
C994       H1006   1.110       .  S
C994       H1007   1.110       .  S
C996       C1001   1.509       .  S
C996        C997   1.399       .  A
C997        C998   1.425   1_565  A
C997       H1002   1.075       .  S
C999       C1003   1.510       .  S
C999       C1000   1.406       .  A
C1000      H1004   1.085       .  S
C1001      H1011   1.111       .  S
C1001      H1012   1.110   1_565  S
C1001      H1013   1.109       .  S
C1003      H1014   1.111       .  S
C1003      H1015   1.095       .  S
C1003      H1016   1.110       .  S
C1017      C1018   1.397       .  A
C1017      C1022   1.404       .  A
C1017      H1027   1.085       .  S
C1018      C1023   1.480       .  S
C1019      C1024   1.507       .  S
C1019      C1020   1.404       .  A
C1020      C1021   1.410       .  A
C1020      H1025   1.083       .  S
C1022      C1026   1.509       .  S
C1023      C1028   1.401       .  A
C1024      H1040   1.110       .  S
C1024      H1041   1.110       .  S
C1024      H1042   1.111       .  S
C1026      H1037   1.111       .  S
C1026      H1038   1.110       .  S
C1026      H1039   1.110       .  S
C1028      C1033   1.509       .  S
C1028      C1029   1.399       .  A
C1029      H1034   1.075       .  S
C1030      C1031   1.442       .  A
C1031      C1035   1.513       .  S
C1031      C1032   1.407       .  A
C1032      H1036   1.084       .  S
C1033      H1043   1.111       .  S
C1033      H1044   1.110       .  S
C1033      H1045   1.110       .  S
C1035      H1046   1.111       .  S
C1035      H1047   1.105   1_655  S
C1035      H1048   1.107       .  S
C1049      C1054   1.404       .  A
C1049      H1059   1.085       .  S
C1050      C1055   1.477       .  S
C1050      C1051   1.409       .  A
C1051      C1056   1.508       .  S
C1051      C1052   1.399       .  A
C1052      C1053   1.402       .  A
C1052      H1057   1.080       .  S
C1054      C1058   1.508       .  S
C1055      C1060   1.401       .  A
C1056      H1072   1.110       .  S
C1056      H1073   1.109       .  S
C1056      H1074   1.111       .  S
C1058      H1069   1.111       .  S
C1058      H1070   1.110       .  S
C1058      H1071   1.107       .  S
C1060      C1065   1.509       .  S
C1060      C1061   1.400       .  A
C1061      C1062   1.423   1_655  A
C1061      H1066   1.077       .  S
C1063      C1067   1.513       .  S
C1063      C1064   1.405       .  A
C1064      H1068   1.085       .  S
C1065      H1075   1.111       .  S
C1065      H1076   1.110       .  S
C1065      H1077   1.109       .  S
C1067      H1078   1.107       .  S
C1067      H1079   1.105       .  S
C1067      H1080   1.111       .  S
C1081      C1086   1.405       .  A
C1081      H1091   1.084       .  S
C1082      C1087   1.480       .  S
C1082      C1083   1.410       .  A
C1083      C1088   1.507       .  S
C1083      C1084   1.402       .  A
C1084      H1089   1.084       .  S
C1085      C1086   1.417       .  A
C1086      C1090   1.507       .  S
C1087      C1096   1.391       .  A
C1088      H1104   1.110       .  S
C1088      H1105   1.110       .  S
C1088      H1106   1.111       .  S
C1090      H1101   1.109       .  S
C1090      H1102   1.111       .  S
C1090      H1103   1.111       .  S
C1092      C1097   1.507       .  S
C1092      C1093   1.399       .  A
C1093      C1094   1.425   1_655  A
C1093      H1098   1.083       .  S
C1095      C1099   1.520       .  S
C1095      C1096   1.408       .  A
C1096      H1100   1.085       .  S
C1097      H1107   1.111       .  S
C1097      H1108   1.110       .  S
C1099      H1111   1.103       .  S
C1099      H1112   1.102       .  S
C1113      C1118   1.402       .  A
C1113      H1123   1.085       .  S
C1114      C1115   1.411       .  A
C1115      C1120   1.506       .  S
C1115      C1116   1.407       .  A
C1116      H1121   1.084       .  S
C1117      C1118   1.418       .  A
C1118      C1122   1.506       .  S
C1119      C1124   1.400   1_455  A
C1120      H1136   1.110       .  S
C1120      H1137   1.111       .  S
C1120      H1138   1.110       .  S
C1122      H1133   1.110       .  S
C1122      H1134   1.111       .  S
C1122      H1135   1.103       .  S
C1124      C1129   1.508       .  S
C1124      C1125   1.402       .  A
C1125      C1126   1.428   1_655  A
C1125      H1130   1.076       .  S
C1127      C1131   1.505       .  S
C1127      C1128   1.406       .  A
C1128      H1132   1.085       .  S
C1129      H1139   1.111       .  S
C1129      H1140   1.110       .  S
C1129      H1141   1.110       .  S
C1131      H1142   1.111       .  S
C1131      H1143   1.086       .  S
C1131      H1144   1.111       .  S
