geometry optimzed in LAMMPS
_audit_creation_date              2020-11-30 
_audit_creation_method            'lammps2cif' 
_symmetry_space_group_name_H-M    'P1' 
_symmetry_Int_Tables_number       1 
_symmetry_cell_setting            triclinic 
loop_ 
_symmetry_equiv_pos_as_xyz 
  x,y,z 
_cell_length_a                    61.93717531 
_cell_length_b                    45.847655687275854 
_cell_length_c                    45.22581853135732 
_cell_angle_alpha                 90.24365953873715 
_cell_angle_beta                  89.95787341757041 
_cell_angle_gamma                 90.14277552171734 
loop_ 
_atom_site_label 
_atom_site_type_symbol 
_atom_site_fract_x 
_atom_site_fract_y 
_atom_site_fract_z 
_atom_site_charge 
C1          C  0.98571640  0.47487250  0.75564999     0.03300
C2          C  0.00850224  0.47573294  0.75356656     0.03200
C3          C  0.02115394  0.00403548  0.76050270    -0.17300
C4          C  0.00977202  0.03034389  0.75916493     0.03300
C5          C  0.98696590  0.02984428  0.75770451     0.03200
C6          C  0.97414385  0.50123399  0.75646427    -0.17300
H7          H  0.95671788  0.50059736  0.75729897     0.05300
H8          H  0.03860551  0.00443171  0.76073604     0.05300
O9          O  0.15146131  0.25127653  0.69961944    -0.56800
C10         C  0.10939964  0.30265763  0.74481551     0.75800
O11         O  0.12689151  0.20665804  0.77285532    -0.58000
C12         C  0.16495701  0.23106820  0.70412514     0.75800
C13         C  0.16428014  0.27648790  0.80001349     0.78200
Cd14       Cd  0.13823450  0.25395480  0.75154912     1.37500
O15         O  0.12647601  0.30081107  0.72943958    -0.56800
O16         O  0.16593446  0.28607533  0.77394648    -0.55600
C17         C  0.10935947  0.20509141  0.75851843     0.78100
O18         O  0.15092571  0.25583458  0.80346594    -0.58000
O19         O  0.10568160  0.28199665  0.76255636    -0.56500
O20         O  0.16628892  0.22222133  0.73046777    -0.56400
O21         O  0.10512619  0.22611191  0.74147780    -0.55600
O22         O  0.84614682  0.26012726  0.69597827    -0.56800
C23         C  0.88779661  0.20320896  0.73807031     0.75800
O24         O  0.87039473  0.29665116  0.77280057    -0.58000
C25         C  0.83042773  0.27656297  0.70254149     0.75800
C26         C  0.83418819  0.22429740  0.79590697     0.78200
Cd27       Cd  0.85847875  0.25101430  0.74785749     1.37500
O28         O  0.86974470  0.20417586  0.72486034    -0.56800
O29         O  0.83312759  0.21508307  0.76955813    -0.55600
C30         C  0.88784494  0.29880154  0.75827216     0.78100
O31         O  0.84609148  0.24646026  0.80005009    -0.58000
O32         O  0.89249723  0.22466513  0.75448259    -0.56500
O33         O  0.82746006  0.28016857  0.72994464    -0.56400
O34         O  0.89160968  0.27903567  0.73941946    -0.55600
O35         O  0.62838333  0.44434512  0.77486600    -0.56800
C36         C  0.66327161  0.01708287  0.80374944     0.75800
O37         O  0.64882437  0.49657678  0.70471654    -0.58000
C38         C  0.60958631  0.44409682  0.76388609     0.75800
C39         C  0.60839542  0.04179663  0.75047168     0.78200
Cd40       Cd  0.63729768  0.99316198  0.75637427     1.37500
O41         O  0.65037662  0.99599798  0.80800819    -0.56800
O42         O  0.60487635  0.02142719  0.76863228    -0.55600
C43         C  0.66417573  0.47855330  0.70711479     0.78100
O44         O  0.62511351  0.03954879  0.73446205    -0.58000
O45         O  0.66453627  0.02629118  0.77751601    -0.56500
O46         O  0.60389257  0.46688703  0.75045034    -0.56400
O47         O  0.66744685  0.46915103  0.73295841    -0.55600
C48         C  0.48588079  0.27033362  0.75172530     0.03300
C49         C  0.50870525  0.27099877  0.75293001     0.03200
C50         C  0.52026685  0.24475929  0.75189861    -0.17300
C51         C  0.50973312  0.21768906  0.75121125     0.03300
C52         C  0.48685478  0.21685586  0.75179033     0.03200
C53         C  0.47530945  0.24323585  0.75099757    -0.17300
H54         H  0.45786331  0.24267482  0.75061419     0.05300
H55         H  0.53771651  0.24541352  0.75231271     0.05300
O56         O  0.34371096  0.00037047  0.80779283    -0.56800
C57         C  0.38725605  0.04310826  0.76113708     0.75800
O58         O  0.36856179  0.44592763  0.73666421    -0.58000
C59         C  0.32895526  0.47764965  0.80223952     0.75800
C60         C  0.33184706  0.01616536  0.70958278     0.78200
Cd61       Cd  0.35817012  0.99486657  0.75715576     1.37500
O62         O  0.37894973  0.03224033  0.78423610    -0.56800
O63         O  0.33002089  0.02592079  0.73567901    -0.55600
C64         C  0.38675705  0.44647631  0.74939871     0.78100
O65         O  0.34487264  0.99519677  0.70601510    -0.58000
O66         O  0.38202067  0.03179563  0.73661699    -0.56500
O67         O  0.33015704  0.46296248  0.77856403    -0.56400
O68         O  0.39133502  0.46966021  0.76323193    -0.55600
C69         C  0.25441360  0.38865050  0.97989800     0.03300
C70         C  0.23988607  0.36475940  0.97867971     0.03200
C71         C  0.23350496  0.35135362  0.00521810    -0.17300
C72         C  0.24100756  0.36107006  0.03299712     0.03300
C73         C  0.25555184  0.38511501  0.03409001     0.03200
C74         C  0.26172348  0.39863055  0.00750540    -0.17300
H75         H  0.27293542  0.41680823  0.00826416     0.05300
H76         H  0.22242012  0.33305224  0.00422675     0.05300
C77         C  0.01332411  0.47025114  0.25305916     0.03300
C78         C  0.99052731  0.46943561  0.25182021     0.03200
C79         C  0.97813504  0.99683740  0.25524867    -0.17300
C80         C  0.98905041  0.02361095  0.25670013     0.03300
C81         C  0.01189404  0.02393118  0.25851426     0.03200
C82         C  0.02311032  0.99737725  0.25822746    -0.17300
H83         H  0.04053295  0.99751530  0.25914321     0.05300
H84         H  0.96071081  0.99657928  0.25425822     0.05300
O85         O  0.12567069  0.29192257  0.28038219    -0.56800
C86         C  0.17012301  0.22938175  0.30624421     0.75800
O87         O  0.12571064  0.20301846  0.23695015    -0.58000
C88         C  0.11206519  0.29522525  0.25973725     0.75800
C89         C  0.17035366  0.26874587  0.21264085     0.78200
Cd90       Cd  0.14209353  0.24772711  0.25897942     1.37500
O91         O  0.15526683  0.24788548  0.31045943    -0.56800
O92         O  0.16956640  0.28049982  0.23799543    -0.55600
C93         C  0.11304146  0.19830379  0.25848379     0.78100
O94         O  0.15856316  0.24633359  0.20902509    -0.58000
O95         O  0.17251275  0.22092803  0.27978021    -0.56500
O96         O  0.11247609  0.27650647  0.23914923    -0.56400
O97         O  0.11416401  0.21616532  0.27976797    -0.55600
O98         O  0.84526535  0.24655373  0.30675671    -0.56800
C99         C  0.88898472  0.19812926  0.25896773     0.75800
O100        O  0.84692155  0.24734679  0.20419897    -0.58000
C101        C  0.83237281  0.26769804  0.30344392     0.75800
C102        C  0.88905671  0.29615725  0.25399179     0.78200
Cd103      Cd  0.85978501  0.24713160  0.25589528     1.37500
O104        O  0.87378936  0.20122992  0.27749079    -0.56800
O105        O  0.88824084  0.27874341  0.27556244    -0.55600
C106        C  0.83359721  0.22652739  0.20681540     0.78100
O107        O  0.87604975  0.29102698  0.23295809    -0.58000
O108        O  0.89075293  0.21788529  0.23971991    -0.56500
O109        O  0.83112315  0.27810110  0.27761086    -0.56400
O110        O  0.83152760  0.21672061  0.23276712    -0.55600
O111        O  0.62746664  0.46237356  0.22312388    -0.56800
C112        C  0.67172871  0.02775244  0.20889589     0.75800
O113        O  0.62417592  0.04771150  0.28028337    -0.58000
C114        C  0.61411166  0.45566631  0.24326092     0.75800
C115        C  0.67054854  0.48247874  0.29641792     0.78200
Cd116      Cd  0.64209295  0.00657118  0.25373790     1.37500
O117        O  0.65618632  0.01073077  0.20296460    -0.56800
O118        O  0.66867991  0.46965552  0.27170383    -0.55600
C119        C  0.61154250  0.05399198  0.25923316     0.78100
O120        O  0.66007610  0.50603632  0.29948192    -0.58000
O121        O  0.67387005  0.03454810  0.23587518    -0.56500
O122        O  0.61470041  0.47116490  0.26645088    -0.56400
O123        O  0.61331895  0.03864187  0.23611392    -0.55600
O124        O  0.34514503  0.00113342  0.20150615    -0.56800
C125        C  0.39157629  0.05150385  0.24963290     0.75800
O126        O  0.34527971  0.00017657  0.30172062    -0.58000
C127        C  0.33139497  0.48067278  0.20916629     0.75800
C128        C  0.39025418  0.45637748  0.25400904     0.78200
Cd129      Cd  0.36166627  0.00321145  0.25192105     1.37500
O130        O  0.37813234  0.04702037  0.22889179    -0.56800
O131        O  0.38899086  0.47471427  0.23332435    -0.55600
C132        C  0.33548356  0.02439899  0.30054655     0.78100
O133        O  0.37732328  0.46007189  0.27547329    -0.58000
O134        O  0.39096221  0.03369442  0.27089254    -0.56500
O135        O  0.33210709  0.47071336  0.23520859    -0.56400
O136        O  0.33722819  0.03803373  0.27636227    -0.55600
C137        C  0.51290145  0.28163972  0.24299714     0.03300
C138        C  0.48999660  0.28183733  0.24253145     0.03200
C139        C  0.47877766  0.25527131  0.24352755    -0.17300
C140        C  0.48959757  0.22857890  0.24571968     0.03300
C141        C  0.51244951  0.22845107  0.24661067     0.03200
C142        C  0.52368698  0.25490864  0.24485682    -0.17300
H143        H  0.54136708  0.25471098  0.24536207     0.05300
H144        H  0.46102830  0.25541182  0.24325230     0.05300
C145        C  0.76147725  0.13037449  0.97296429     0.03300
C146        C  0.74539571  0.10844063  0.97480714     0.03200
C147        C  0.73881933  0.09838769  0.00270792    -0.17300
C148        C  0.74740625  0.11005992  0.02898917     0.03300
C149        C  0.76348381  0.13207122  0.02706525     0.03200
C150        C  0.77029653  0.14173725  0.99914472    -0.17300
H151        H  0.78250573  0.15863163  0.99777028     0.05300
H152        H  0.72652759  0.08159856  0.00397496     0.05300
C153        C  0.26343581  0.11619173  0.53425584     0.03300
C154        C  0.24700547  0.13767833  0.53460556     0.03200
C155        C  0.23882344  0.14785455  0.50769194    -0.17300
C156        C  0.24661272  0.13754743  0.48054300     0.03300
C157        C  0.26318693  0.11638301  0.48003906     0.03200
C158        C  0.27148480  0.10620411  0.50693211    -0.17300
H159        H  0.28412591  0.08993107  0.50659573     0.05300
H160        H  0.22612847  0.16407137  0.50785517     0.05300
C161        C  0.74131617  0.39678535  0.52690582     0.03300
C162        C  0.75676339  0.37422759  0.52967258     0.03200
C163        C  0.76517006  0.36110758  0.50399255    -0.17300
C164        C  0.75888286  0.37015595  0.47566587     0.03300
C165        C  0.74391102  0.39328530  0.47300833     0.03200
C166        C  0.73526211  0.40609181  0.49862333    -0.17300
H167        H  0.72357479  0.42351881  0.49650469     0.05300
H168        H  0.77686501  0.34369184  0.50609390     0.05300
C169        C  0.27112878  0.06782126  0.41195567    -0.04500
C170        C  0.29114077  0.07802679  0.40116329     0.09700
C171        C  0.30167138  0.10122973  0.41584915    -0.01900
C172        C  0.29255659  0.11366359  0.44157117    -0.00100
C173        C  0.27222560  0.10408366  0.45198638    -0.03700
C174        C  0.26177951  0.08062933  0.43739858     0.03300
C175        C  0.30181033  0.06328149  0.37531079     0.10100
C176        C  0.32210912  0.11201385  0.40461894     0.36000
C177        C  0.24239453  0.06792205  0.44989873     0.39400
C178        C  0.29611314  0.07079572  0.34619919    -0.04100
C179        C  0.30630464  0.05720142  0.32183754     0.03100
C180        C  0.32313920  0.03669306  0.32633315    -0.03700
C181        C  0.32886370  0.02934368  0.35580270     0.00100
C182        C  0.31808881  0.04237112  0.38003135    -0.02500
C183        C  0.28035700  0.09356261  0.34133071     0.36800
C184        C  0.32365249  0.49165100  0.35732843     0.40400
C185        C  0.29905573  0.06427215  0.29221834     0.39500
C186        C  0.32417929  0.03488908  0.41003360     0.36400
C187        C  0.26048586  0.04353269  0.39730882     0.37100
C188        C  0.30486588  0.13487326  0.45845074     0.40400
N189        N  0.29315188  0.06999102  0.26867286    -0.37700
N190        N  0.26808354  0.11208620  0.33733052    -0.39300
N191        N  0.32856756  0.46737308  0.35902399    -0.37000
N192        N  0.32909823  0.02905453  0.43396603    -0.39400
N193        N  0.33837937  0.12061663  0.39552654    -0.39200
N194        N  0.31498392  0.15133480  0.47212626    -0.36800
N195        N  0.22718283  0.05698823  0.45980570    -0.37900
N196        N  0.25200059  0.02415459  0.38561322    -0.39500
C197        C  0.45102634  0.34222234  0.22015606    -0.04500
C198        C  0.45076665  0.35959558  0.24596939     0.09700
C199        C  0.46359959  0.35174863  0.27036854    -0.01900
C200        C  0.47610718  0.32613777  0.26935880    -0.00100
C201        C  0.47719832  0.30935688  0.24312206    -0.03700
C202        C  0.46416537  0.31714622  0.21871378     0.03300
C203        C  0.43547553  0.38468603  0.24848772     0.10100
C204        C  0.46338639  0.36965239  0.29688374     0.36000
C205        C  0.46321705  0.29842486  0.19281024     0.39400
C206        C  0.41499881  0.38051114  0.26147576    -0.04100
C207        C  0.40029223  0.40388208  0.26354506     0.03100
C208        C  0.40601954  0.43181021  0.25274793    -0.03700
C209        C  0.42674283  0.43590886  0.23991592     0.00100
C210        C  0.44138438  0.41242266  0.23792616    -0.02500
C211        C  0.40906347  0.35194720  0.27259651     0.36800
C212        C  0.43333710  0.46437832  0.22922520     0.40400
C213        C  0.37896178  0.39866312  0.27572654     0.39500
C214        C  0.46268867  0.41674496  0.22527647     0.36400
C215        C  0.43718654  0.34970651  0.19547671     0.37100
C216        C  0.48559988  0.31526749  0.29641144     0.40400
N217        N  0.36195804  0.39438426  0.28543443    -0.37700
N218        N  0.40443439  0.32915180  0.28151757    -0.39300
N219        N  0.43863173  0.48702178  0.22057642    -0.37000
N220        N  0.47972047  0.42008978  0.21528685    -0.39400
N221        N  0.46327408  0.38402049  0.31798041    -0.39200
N222        N  0.49237128  0.30643487  0.31844981    -0.36800
N223        N  0.46220115  0.28334396  0.17226581    -0.37900
N224        N  0.42606739  0.35569964  0.17587807    -0.39500
C225        C  0.41572070  0.12739301  0.23806844    -0.04500
C226        C  0.43642606  0.12414715  0.25052823     0.09700
C227        C  0.44259306  0.09713821  0.26251193    -0.01900
C228        C  0.42811181  0.07329066  0.26190807    -0.00100
C229        C  0.40718829  0.07641302  0.24944301    -0.03700
C230        C  0.40110145  0.10376750  0.23765638     0.03300
C231        C  0.45167067  0.14947954  0.25058911     0.10100
C232        C  0.46389864  0.09397626  0.27542755     0.36000
C233        C  0.37949075  0.10822971  0.22621990     0.39400
C234        C  0.45160251  0.16945248  0.27438050    -0.04100
C235        C  0.46379394  0.19541367  0.27268305     0.03100
C236        C  0.47660757  0.20118281  0.24744118    -0.03700
C237        C  0.47606019  0.18154496  0.22329089     0.00100
C238        C  0.46415698  0.15538224  0.22523679    -0.02500
C239        C  0.43852822  0.16354028  0.30029991     0.36800
C240        C  0.48561834  0.18966024  0.19525661     0.40400
C241        C  0.46216239  0.21692406  0.29619514     0.39500
C242        C  0.46416885  0.13481800  0.20077010     0.36400
C243        C  0.40946706  0.15534327  0.22583078     0.37100
C244        C  0.43507791  0.04545708  0.27366071     0.40400
N245        N  0.46063879  0.23428511  0.31473031    -0.37700
N246        N  0.42811583  0.15876708  0.32098611    -0.39300
N247        N  0.49249409  0.19609695  0.17239842    -0.37000
N248        N  0.46418104  0.11829398  0.18135714    -0.39400
N249        N  0.48087871  0.09150454  0.28577521    -0.39200
N250        N  0.44068343  0.02333524  0.28316742    -0.36800
N251        N  0.36224791  0.11196504  0.21717358    -0.37900
N252        N  0.40466864  0.17771116  0.21610228    -0.39500
C253        C  0.68842053  0.45946456  0.37351687    -0.04500
C254        C  0.70764248  0.44423601  0.36729355     0.09700
C255        C  0.71512840  0.44208101  0.33797546    -0.01900
C256        C  0.70325879  0.45485681  0.31474710    -0.00100
C257        C  0.68379633  0.47005250  0.32083710    -0.03700
C258        C  0.67654044  0.47234333  0.35048387     0.03300
C259        C  0.71940749  0.42959307  0.39189632     0.10100
C260        C  0.73497662  0.42643009  0.33184616     0.36000
C261        C  0.65505850  0.98653854  0.36105823     0.39400
C262        C  0.71347076  0.40110846  0.40027884    -0.04100
C263        C  0.72173783  0.38894164  0.42649074     0.03100
C264        C  0.73665789  0.40482197  0.44390923    -0.03700
C265        C  0.74277054  0.43329904  0.43519585     0.00100
C266        C  0.73443125  0.44541754  0.40900710    -0.02500
C267        C  0.69808362  0.38485191  0.38246269     0.36800
C268        C  0.75652716  0.45091901  0.45415177     0.40400
C269        C  0.71301598  0.36152216  0.43697299     0.39500
C270        C  0.74074531  0.47456168  0.40005687     0.36400
C271        C  0.68059735  0.46122312  0.40374296     0.37100
C272        C  0.71134890  0.45256065  0.28472097     0.40400
N273        N  0.70536205  0.33995975  0.44512091    -0.37700
N274        N  0.68583590  0.37195514  0.36815294    -0.39300
N275        N  0.76729280  0.46509752  0.46943563    -0.37000
N276        N  0.74581444  0.49777191  0.39281947    -0.39400
N277        N  0.75081995  0.41389858  0.32715376    -0.39200
N278        N  0.71786608  0.45056732  0.26080662    -0.36800
N279        N  0.63873771  0.99732749  0.36699570    -0.37900
N280        N  0.67437708  0.46249272  0.42784756    -0.39500
C281        C  0.70755609  0.09150587  0.09083274    -0.04500
C282        C  0.72085277  0.07678420  0.11115211     0.09700
C283        C  0.74297675  0.07318439  0.10482240    -0.01900
C284        C  0.75165455  0.08354406  0.07789268    -0.00100
C285        C  0.73855252  0.09929292  0.05790128    -0.03700
C286        C  0.71635278  0.10302866  0.06456798     0.03300
C287        C  0.71089676  0.06306534  0.13796241     0.10100
C288        C  0.75664456  0.05803811  0.12573116     0.36000
C289        C  0.70230314  0.11812162  0.04405826     0.39400
C290        C  0.70314520  0.03417376  0.13636611    -0.04100
C291        C  0.69086118  0.02239925  0.15976011     0.03100
C292        C  0.68634773  0.03938913  0.18529977    -0.03700
C293        C  0.69517104  0.06796008  0.18742798     0.00100
C294        C  0.70737105  0.07966173  0.16381424    -0.02500
C295        C  0.70747634  0.01673703  0.11019108     0.36800
C296        C  0.69076709  0.08614023  0.21306315     0.40400
C297        C  0.68285140  0.99271595  0.15726644     0.39500
C298        C  0.71590157  0.10911696  0.16569256     0.36400
C299        C  0.68456272  0.09381835  0.09656564     0.37100
C300        C  0.77346090  0.07550654  0.06973597     0.40400
N301        N  0.67633835  0.96911176  0.15519692    -0.37700
N302        N  0.71101593  0.00283937  0.08933533    -0.39300
N303        N  0.68724008  0.10071936  0.23345266    -0.37000
N304        N  0.72275134  0.13259098  0.16711802    -0.39400
N305        N  0.76754899  0.04602996  0.14248138    -0.39200
N306        N  0.79074080  0.06819944  0.06347083    -0.36800
N307        N  0.69105468  0.13005840  0.02768265    -0.37900
N308        N  0.66621676  0.09533586  0.10116673    -0.39500
C309        C  0.55142228  0.16652171  0.22947245    -0.04500
C310        C  0.55177251  0.15142191  0.25657809     0.09700
C311        C  0.53903917  0.16138700  0.28040896    -0.01900
C312        C  0.52622236  0.18659273  0.27725913    -0.00100
C313        C  0.52525302  0.20114096  0.24978563    -0.03700
C314        C  0.53821385  0.19124317  0.22605142     0.03300
C315        C  0.56629039  0.12563104  0.26007853     0.10100
C316        C  0.53947590  0.14597226  0.30833425     0.36000
C317        C  0.53860079  0.20713627  0.19838493     0.39400
C318        C  0.58688262  0.12905919  0.27297573    -0.04100
C319        C  0.60146138  0.10544153  0.27359461     0.03100
C320        C  0.59557462  0.07821384  0.26106804    -0.03700
C321        C  0.57465403  0.07471319  0.24880476     0.00100
C322        C  0.56007536  0.09830586  0.24848527    -0.02500
C323        C  0.59333904  0.15730432  0.28459124     0.36800
C324        C  0.56799524  0.04685731  0.23642942     0.40400
C325        C  0.62298517  0.10983389  0.28546587     0.39500
C326        C  0.53873579  0.09474696  0.23569550     0.36400
C327        C  0.56516901  0.15699913  0.20532290     0.37100
C328        C  0.51556866  0.19885672  0.30298179     0.40400
N329        N  0.64018450  0.11337269  0.29482582    -0.37700
N330        N  0.59846137  0.17987184  0.29379228    -0.39300
N331        N  0.56266249  0.02473392  0.22636803    -0.37000
N332        N  0.52171134  0.09208229  0.22548614    -0.39400
N333        N  0.53979925  0.13368019  0.33062531    -0.39200
N334        N  0.50759565  0.20868293  0.32390135    -0.36800
N335        N  0.53901417  0.21989652  0.17636512    -0.37900
N336        N  0.57620896  0.14941303  0.18613879    -0.39500
C337        C  0.58968377  0.38099831  0.22500936    -0.04500
C338        C  0.56879442  0.38382454  0.23716097     0.09700
C339        C  0.56245803  0.41052600  0.24994808    -0.01900
C340        C  0.57717348  0.43398708  0.25171103    -0.00100
C341        C  0.59835110  0.43115447  0.24008758    -0.03700
C342        C  0.60437758  0.40461376  0.22622341     0.03300
C343        C  0.55396120  0.35801624  0.23858673     0.10100
C344        C  0.54074201  0.41366524  0.26159485     0.36000
C345        C  0.62601144  0.40092264  0.21448495     0.39400
C346        C  0.55281191  0.34149722  0.26477184    -0.04100
C347        C  0.53907912  0.31699673  0.26640457     0.03100
C348        C  0.52625742  0.30880776  0.24181049    -0.03700
C349        C  0.52806698  0.32478060  0.21523505     0.00100
C350        C  0.54144561  0.34973987  0.21388841    -0.02500
C351        C  0.56617526  0.34947568  0.28989387     0.36800
C352        C  0.51778495  0.31411084  0.18852050     0.40400
C353        C  0.53888406  0.29954186  0.29308378     0.39500
C354        C  0.54257039  0.36677623  0.18699224     0.36400
C355        C  0.59622955  0.35340596  0.21203702     0.37100
C356        C  0.57031008  0.46108231  0.26546200     0.40400
N357        N  0.53895221  0.28554292  0.31431967    -0.37700
N358        N  0.57688962  0.35590724  0.30984536    -0.39300
N359        N  0.51013977  0.30545827  0.16684923    -0.37000
N360        N  0.54343374  0.38044755  0.16557085    -0.39400
N361        N  0.52340220  0.41609279  0.27081578    -0.39200
N362        N  0.56486321  0.48258618  0.27666062    -0.36800
N363        N  0.64325895  0.39789462  0.20510877    -0.37900
N364        N  0.60141567  0.33135840  0.20173587    -0.39500
C365        C  0.78774140  0.30429913  0.34882935    -0.04500
C366        C  0.79824389  0.30871027  0.37617081     0.09700
C367        C  0.81958369  0.29868066  0.37994129    -0.01900
C368        C  0.83054131  0.28486280  0.35639694    -0.00100
C369        C  0.82014341  0.28054017  0.32881168    -0.03700
C370        C  0.79858576  0.29018569  0.32526785     0.03300
C371        C  0.78723794  0.32491611  0.40082120     0.10100
C372        C  0.83049329  0.30336331  0.40796350     0.36000
C373        C  0.78740927  0.28539923  0.29749047     0.39400
C374        C  0.77199777  0.31068787  0.41897555    -0.04100
C375        C  0.76270724  0.32549171  0.44328582     0.03100
C376        C  0.76833770  0.35485386  0.44940560    -0.03700
C377        C  0.78417343  0.36866841  0.43179730     0.00100
C378        C  0.79322690  0.35398326  0.40727281    -0.02500
C379        C  0.76637078  0.28048925  0.41311655     0.36800
C380        C  0.79271423  0.39689540  0.44037406     0.40400
C381        C  0.74801176  0.31005827  0.46274568     0.39500
C382        C  0.80928004  0.36845881  0.38908664     0.36400
C383        C  0.76591243  0.31495276  0.34479675     0.37100
C384        C  0.85300701  0.27676092  0.36019951     0.40400
N385        N  0.73640530  0.29771382  0.47841097    -0.37700
N386        N  0.76188777  0.25638743  0.40845034    -0.39300
N387        N  0.80022389  0.41906436  0.44714444    -0.37000
N388        N  0.82218623  0.37982730  0.37461301    -0.39400
N389        N  0.83919575  0.30734073  0.43025897    -0.39200
N390        N  0.87095623  0.27047951  0.36321689    -0.36800
N391        N  0.77847755  0.28160901  0.27532934    -0.37900
N392        N  0.74850786  0.32352679  0.34166494    -0.39500
C393        C  0.80192897  0.17275347  0.15769022    -0.04500
C394        C  0.80245261  0.18700733  0.13024056     0.09700
C395        C  0.81214661  0.21469006  0.12792527    -0.01900
C396        C  0.82154364  0.22812917  0.15296990    -0.00100
C397        C  0.82174831  0.21360938  0.18075225    -0.03700
C398        C  0.81150997  0.18578731  0.18282330     0.03300
C399        C  0.79247560  0.17290601  0.10367863     0.10100
C400        C  0.81252063  0.22926424  0.09948815     0.36000
C401        C  0.81098242  0.16983277  0.21045485     0.39400
C402        C  0.77037649  0.17703090  0.09761632    -0.04100
C403        C  0.76102175  0.16437729  0.07220822     0.03100
C404        C  0.77340661  0.14601331  0.05367053    -0.03700
C405        C  0.79574276  0.14260628  0.05934541     0.00100
C406        C  0.80521441  0.15602132  0.08427981    -0.02500
C407        C  0.75735571  0.19465206  0.11744374     0.36800
C408        C  0.80910969  0.12575066  0.03921581     0.40400
C409        C  0.73925085  0.17237460  0.06386708     0.39500
C410        C  0.82813165  0.15272040  0.08989022     0.36400
C411        C  0.79162512  0.14434017  0.15984279     0.37100
C412        C  0.83066261  0.25712711  0.14972938     0.40400
N413        N  0.72205532  0.17957700  0.05715457    -0.37700
N414        N  0.74700644  0.20860921  0.13340662    -0.39300
N415        N  0.81972725  0.11238233  0.02305584    -0.37000
N416        N  0.84643541  0.15019192  0.09428005    -0.39400
N417        N  0.81284235  0.24075497  0.07675675    -0.39200
N418        N  0.83787608  0.28026466  0.14690569    -0.36800
N419        N  0.81041451  0.15689082  0.23236338    -0.37900
N420        N  0.78336265  0.12172455  0.16134809    -0.39500
C421        C  0.20498260  0.17741082  0.35189568    -0.04500
C422        C  0.20537597  0.19157190  0.37952019     0.09700
C423        C  0.19495595  0.21863130  0.38308526    -0.01900
C424        C  0.18441528  0.23179173  0.35891162    -0.00100
C425        C  0.18339501  0.21728669  0.33107692    -0.03700
C426        C  0.19404936  0.18997964  0.32781174     0.03300
C427        C  0.21625443  0.17734000  0.40515558     0.10100
C428        C  0.19437081  0.23234511  0.41206747     0.36000
C429        C  0.19325383  0.17378759  0.30017699     0.39400
C430        C  0.23687890  0.18676117  0.41435570    -0.04100
C431        C  0.24694329  0.17354666  0.43880805     0.03100
C432        C  0.23686277  0.14992644  0.45333670    -0.03700
C433        C  0.21591102  0.14113824  0.44461815     0.00100
C434        C  0.20573765  0.15463394  0.42044601    -0.02500
C435        C  0.24753235  0.21047703  0.39896435     0.36800
C436        C  0.20415556  0.11965652  0.46176325     0.40400
C437        C  0.26659495  0.18619158  0.45065470     0.39500
C438        C  0.18418182  0.14569144  0.41165852     0.36400
C439        C  0.21503428  0.14902428  0.34871479     0.37100
C440        C  0.17492238  0.26043402  0.36299806     0.40400
N441        N  0.28193285  0.19717272  0.46019629    -0.37700
N442        N  0.25601101  0.22942791  0.38670991    -0.39300
N443        N  0.19450809  0.10293318  0.47562714    -0.37000
N444        N  0.16700007  0.13861943  0.40454122    -0.39400
N445        N  0.19374660  0.24308186  0.43525845    -0.39200
N446        N  0.16744248  0.28331300  0.36643077    -0.36800
N447        N  0.19271082  0.16065994  0.27827025    -0.37900
N448        N  0.22268005  0.12614302  0.34640128    -0.39500
C449        C  0.04175497  0.40211078  0.28096810    -0.04500
C450        C  0.05247198  0.39266489  0.25515021     0.09700
C451        C  0.05039160  0.40862303  0.22874870    -0.01900
C452        C  0.03824626  0.43453339  0.22843517    -0.00100
C453        C  0.02662072  0.44329262  0.25384567    -0.03700
C454        C  0.02882857  0.42736273  0.28034150     0.03300
C455        C  0.06759410  0.36743624  0.25649565     0.10100
C456        C  0.06092507  0.39846106  0.20198509     0.36000
C457        C  0.01936578  0.43819695  0.30754736     0.39400
C458        C  0.06065999  0.33935204  0.24803158    -0.04100
C459        C  0.07513895  0.31568657  0.24908607     0.03100
C460        C  0.09657854  0.31994319  0.25927928    -0.03700
C461        C  0.10334740  0.34819276  0.26804413     0.00100
C462        C  0.08896132  0.37186323  0.26628482    -0.02500
C463        C  0.03857880  0.33491627  0.23825202     0.36800
C464        C  0.12533977  0.35331291  0.27786636     0.40400
C465        C  0.06773597  0.28694501  0.24004882     0.39500
C466        C  0.09621605  0.40102713  0.27405377     0.36400
C467        C  0.04454208  0.38614918  0.30833149     0.37100
C468        C  0.03874647  0.45305390  0.20251817     0.40400
N469        N  0.06180403  0.26411043  0.23260347    -0.37700
N470        N  0.02095521  0.33144051  0.23048421    -0.39300
N471        N  0.14284853  0.35744396  0.28579693    -0.37000
N472        N  0.10196737  0.42433166  0.28010327    -0.39400
N473        N  0.06911567  0.39016555  0.18054664    -0.39200
N474        N  0.03936909  0.46808511  0.18203846    -0.36800
N475        N  0.01233014  0.44675223  0.32963681    -0.37900
N476        N  0.04691822  0.37338844  0.33010640    -0.39500
C477        C  0.08935647  0.12175119  0.24934782    -0.04500
C478        C  0.06852739  0.12535386  0.26146830     0.09700
C479        C  0.06236571  0.15271470  0.27294412    -0.01900
C480        C  0.07681374  0.17655568  0.27184664    -0.00100
C481        C  0.09762714  0.17322177  0.25910654    -0.03700
C482        C  0.10377383  0.14559290  0.24785961     0.03300
C483        C  0.05289989  0.10035633  0.26135295     0.10100
C484        C  0.04107046  0.15628672  0.28585491     0.36000
C485        C  0.12516116  0.14128350  0.23551677     0.39400
C486        C  0.04984786  0.08341590  0.28698140    -0.04100
C487        C  0.03619367  0.05872642  0.28618162     0.03100
C488        C  0.02490250  0.05135106  0.25996809    -0.03700
C489        C  0.02849643  0.06790717  0.23413987     0.00100
C490        C  0.04224183  0.09247713  0.23493310    -0.02500
C491        C  0.06150117  0.09074784  0.31382164     0.36800
C492        C  0.01997005  0.05803143  0.20600026     0.40400
C493        C  0.03497493  0.03978057  0.31174352     0.39500
C494        C  0.04626262  0.10897018  0.20816760     0.36400
C495        C  0.09603035  0.09322572  0.23881797     0.37100
C496        C  0.06986543  0.20468589  0.28315550     0.40400
N497        N  0.03430654  0.02442850  0.33197601    -0.37700
N498        N  0.07083653  0.09661716  0.33519939    -0.39300
N499        N  0.01384998  0.05021194  0.18313640    -0.37000
N500        N  0.04969448  0.12200040  0.18680921    -0.39400
N501        N  0.02412625  0.15907488  0.29628123    -0.39200
N502        N  0.06428450  0.22705260  0.29229158    -0.36800
N503        N  0.14219963  0.13781601  0.22560252    -0.37900
N504        N  0.10129531  0.07040495  0.23054815    -0.39500
C505        C  0.95007630  0.08234429  0.23094926    -0.04500
C506        C  0.94678879  0.09824740  0.25730074     0.09700
C507        C  0.95778550  0.09018349  0.28327411    -0.01900
C508        C  0.97182645  0.06603310  0.28305713    -0.00100
C509        C  0.97564271  0.05052111  0.25651807    -0.03700
C510        C  0.96425246  0.05833935  0.23061379     0.03300
C511        C  0.93182927  0.12375798  0.25774085     0.10100
C512        C  0.95442758  0.10668924  0.31031207     0.36000
C513        C  0.96627030  0.04082490  0.20395764     0.39400
C514        C  0.90974040  0.11991864  0.26427658    -0.04100
C515        C  0.89582418  0.14424654  0.26550160     0.03100
C516        C  0.90383673  0.17256510  0.25931936    -0.03700
C517        C  0.92602812  0.17613076  0.25238946     0.00100
C518        C  0.93995958  0.15186457  0.25206597    -0.02500
C519        C  0.90132518  0.09082091  0.26944732     0.36800
C520        C  0.93482716  0.20475217  0.24597697     0.40400
C521        C  0.87313754  0.13983150  0.27222625     0.39500
C522        C  0.96282594  0.15569123  0.24610583     0.36400
C523        C  0.93872645  0.09062475  0.20423756     0.37100
C524        C  0.98074294  0.05570974  0.31069419     0.40400
N525        N  0.85506454  0.13630580  0.27771532    -0.37700
N526        N  0.89456721  0.06760880  0.27342649    -0.39300
N527        N  0.94205812  0.22739301  0.24051939    -0.37000
N528        N  0.98109890  0.15849973  0.24153943    -0.39400
N529        N  0.95176759  0.12002081  0.33178444    -0.39200
N530        N  0.98725542  0.04744833  0.33310813    -0.36800
N531        N  0.96766321  0.02667776  0.18278686    -0.37900
N532        N  0.92970794  0.09724946  0.18290378    -0.39500
C533        C  0.94011591  0.34172299  0.26561756    -0.04500
C534        C  0.93414326  0.36834806  0.25266663     0.09700
C535        C  0.91347528  0.37151459  0.24011459    -0.01900
C536        C  0.89871399  0.34803426  0.24047658    -0.00100
C537        C  0.90457425  0.32111195  0.25350062    -0.03700
C538        C  0.92536874  0.31827150  0.26636968     0.03300
C539        C  0.94951985  0.39343665  0.25290043     0.10100
C540        C  0.90740350  0.39918799  0.22709901     0.36000
C541        C  0.93186007  0.29127627  0.28037919     0.39400
C542        C  0.96274303  0.39884034  0.22815328    -0.04100
C543        C  0.97629425  0.42357730  0.22767105     0.03100
C544        C  0.97779236  0.44188890  0.25281619    -0.03700
C545        C  0.96463113  0.43616905  0.27773671     0.00100
C546        C  0.95018851  0.41242681  0.27745221    -0.02500
C547        C  0.96165908  0.37953135  0.20269800     0.36800
C548        C  0.96517862  0.45556573  0.30318608     0.40400
C549        C  0.98682915  0.43156382  0.20026996     0.39500
C550        C  0.93514266  0.40841706  0.30170352     0.36400
C551        C  0.96159074  0.33851288  0.27802248     0.37100
C552        C  0.87718038  0.35226523  0.22867270     0.40400
N553        N  0.99450802  0.43767741  0.17780105    -0.37700
N554        N  0.96072765  0.36410521  0.18241777    -0.39300
N555        N  0.96555528  0.47115354  0.32337737    -0.37000
N556        N  0.92290243  0.40552591  0.32081796    -0.39400
N557        N  0.90270273  0.42132594  0.21675834    -0.39200
N558        N  0.85999940  0.35582215  0.21933091    -0.36800
N559        N  0.93708860  0.26996968  0.29195230    -0.37900
N560        N  0.97875124  0.33602512  0.28778778    -0.39500
C561        C  0.19937495  0.32338187  0.16242302    -0.04500
C562        C  0.20631311  0.30523198  0.13907576     0.09700
C563        C  0.20313941  0.27479868  0.14108292    -0.01900
C564        C  0.19264484  0.26270697  0.16598407    -0.00100
C565        C  0.18390962  0.28111607  0.18822122    -0.03700
C566        C  0.18755818  0.31165292  0.18630167     0.03300
C567        C  0.21545242  0.31866770  0.11150523     0.10100
C568        C  0.21017475  0.25595445  0.11713386     0.36000
C569        C  0.17811948  0.33150957  0.20773443     0.39400
C570        C  0.23781415  0.31795147  0.10563675    -0.04100
C571        C  0.24620348  0.33096612  0.07972472     0.03100
C572        C  0.23241477  0.34623146  0.06019275    -0.03700
C573        C  0.20990496  0.34646361  0.06602977     0.00100
C574        C  0.20154407  0.33284425  0.09151408    -0.02500
C575        C  0.25222859  0.30424808  0.12664018     0.36800
C576        C  0.19518440  0.36093173  0.04591382     0.40400
C577        C  0.26878403  0.32694500  0.07251473     0.39500
C578        C  0.17853043  0.33381846  0.09752021     0.36400
C579        C  0.20418298  0.35437336  0.16148378     0.37100
C580        C  0.19134044  0.23124822  0.16893537     0.40400
N581        N  0.28680967  0.32294621  0.06717724    -0.37700
N582        N  0.26370253  0.29345525  0.14353221    -0.39300
N583        N  0.18343553  0.37234934  0.02981628    -0.37000
N584        N  0.16022033  0.33475245  0.10253884    -0.39400
N585        N  0.21568058  0.24083559  0.09802496    -0.39200
N586        N  0.19046184  0.20616375  0.17149827    -0.36800
N587        N  0.17048160  0.34755166  0.22454676    -0.37900
N588        N  0.20823094  0.37901080  0.16061489    -0.39500
C589        C  0.30312494  0.42140558  0.16290766    -0.04500
C590        C  0.29623808  0.43731259  0.13809876     0.09700
C591        C  0.30015269  0.46760580  0.13691354    -0.01900
C592        C  0.31087461  0.48201566  0.16042635    -0.00100
C593        C  0.31840709  0.46605375  0.18519018    -0.03700
C594        C  0.31432409  0.43550053  0.18616826     0.03300
C595        C  0.28551070  0.42202770  0.11258032     0.10100
C596        C  0.29347980  0.48383915  0.11101912     0.36000
C597        C  0.32239607  0.41794580  0.21036361     0.39400
C598        C  0.26284898  0.42255513  0.10948937    -0.04100
C599        C  0.25291330  0.41035863  0.08413266     0.03100
C600        C  0.26553910  0.39643721  0.06214060    -0.03700
C601        C  0.28830407  0.39562512  0.06561584     0.00100
C602        C  0.29816755  0.40823915  0.09072564    -0.02500
C603        C  0.24980321  0.43614971  0.13231357     0.36800
C604        C  0.30174367  0.38228432  0.04299644     0.40400
C605        C  0.22993440  0.41426477  0.07981926     0.39500
C606        C  0.32146871  0.40750695  0.09388899     0.36400
C607        C  0.29897029  0.39026384  0.16417383     0.37100
C608        C  0.31490459  0.01312596  0.15687092     0.40400
N609        N  0.21161085  0.41801061  0.07670994    -0.37700
N610        N  0.23943915  0.44694370  0.15061137    -0.39300
N611        N  0.31240795  0.37172742  0.02487446    -0.37000
N612        N  0.34004958  0.40688625  0.09646682    -0.39400
N613        N  0.28841869  0.99573178  0.08876933    -0.39200
N614        N  0.31780384  0.03799807  0.15498798    -0.36800
N615        N  0.32883410  0.40381680  0.22956677    -0.37900
N616        N  0.29566066  0.36543098  0.16512893    -0.39500
C617        C  0.31356250  0.45717192  0.88111277    -0.04500
C618        C  0.29367097  0.44278766  0.87665145     0.09700
C619        C  0.28479919  0.44106367  0.84800810    -0.01900
C620        C  0.29584144  0.45353380  0.82380975    -0.00100
C621        C  0.31608847  0.46736424  0.82805317    -0.03700
C622        C  0.32467328  0.46961340  0.85701251     0.03300
C623        C  0.28250855  0.42858093  0.90219210     0.10100
C624        C  0.26453910  0.42576854  0.84343507     0.36000
C625        C  0.34537964  0.48366646  0.86207045     0.39400
C626        C  0.26870236  0.44491741  0.92068065    -0.04100
C627        C  0.25941112  0.43196671  0.94597446     0.03100
C628        C  0.26366720  0.40237867  0.95271221    -0.03700
C629        C  0.27838504  0.38663949  0.93487877     0.00100
C630        C  0.28719204  0.39937373  0.90923726    -0.02500
C631        C  0.26448092  0.47526868  0.91390716     0.36800
C632        C  0.28648289  0.35866764  0.94459827     0.40400
C633        C  0.24637013  0.44957569  0.96578988     0.39500
C634        C  0.30166211  0.38270841  0.89046229     0.36400
C635        C  0.32298778  0.45814980  0.91047218     0.37100
C636        C  0.28601350  0.45282173  0.79470932     0.40400
N637        N  0.23618047  0.46380533  0.98170930    -0.37700
N638        N  0.26121243  0.49949164  0.90842354    -0.39300
N639        N  0.29372022  0.33677847  0.95240209    -0.37000
N640        N  0.31315028  0.36944585  0.87538277    -0.39400
N641        N  0.24844785  0.41336194  0.83987798    -0.39200
N642        N  0.27810683  0.45242547  0.77153056    -0.36800
N643        N  0.36466525  0.99058969  0.87101443    -0.37900
N644        N  0.33055024  0.45872008  0.93385928    -0.39500
C645        C  0.32032989  0.04807322  0.63354387    -0.04500
C646        C  0.29967971  0.06019823  0.63785126     0.09700
C647        C  0.28903108  0.05666410  0.66512731    -0.01900
C648        C  0.29914669  0.04135455  0.68830040    -0.00100
C649        C  0.32013071  0.02966180  0.68434329    -0.03700
C650        C  0.33050762  0.03274118  0.65655899    -0.02300
C651        C  0.28883565  0.07541177  0.61282590     0.10100
C652        C  0.26762445  0.06881039  0.66920029     0.36000
C653        C  0.35193872  0.02093034  0.65160305     0.39400
C654        C  0.27650165  0.05909043  0.59249287    -0.04100
C655        C  0.26831048  0.07242812  0.56688924     0.03100
C656        C  0.27192681  0.10251679  0.56178424    -0.03700
C657        C  0.28451997  0.11875583  0.58211537     0.00100
C658        C  0.29256274  0.10534424  0.60787699    -0.02500
C659        C  0.27253509  0.02835588  0.59783720     0.36800
C660        C  0.29087421  0.14843577  0.57542454     0.40400
C661        C  0.25660145  0.05487064  0.54543274     0.39500
C662        C  0.30503761  0.12214218  0.62911239     0.36400
C663        C  0.33117023  0.05163477  0.60530644     0.37100
C664        C  0.28757185  0.03684424  0.71581010     0.40400
N665        N  0.24732637  0.04083173  0.52829955    -0.37700
N666        N  0.26936980  0.00387700  0.60227479    -0.39300
N667        N  0.29655345  0.17193695  0.57029039    -0.37000
N668        N  0.31489278  0.13554772  0.64615761    -0.39400
N669        N  0.25055444  0.07856380  0.67232877    -0.39200
N670        N  0.27828224  0.03315300  0.73769761    -0.36800
N671        N  0.36897914  0.01142524  0.64748895    -0.37900
N672        N  0.33977714  0.05456579  0.58278970    -0.39500
C673        C  0.44796452  0.32984633  0.72416960    -0.04500
C674        C  0.44512267  0.34695934  0.74984230     0.09700
C675        C  0.45548228  0.33884300  0.77631124    -0.01900
C676        C  0.46883095  0.31391294  0.77704618    -0.00100
C677        C  0.47237497  0.29732645  0.75106072    -0.03700
C678        C  0.46130011  0.30494063  0.72484485     0.03300
C679        C  0.43016885  0.37261279  0.74943944     0.10100
C680        C  0.45173584  0.35567017  0.80305498     0.36000
C681        C  0.46283305  0.28638658  0.69887049     0.39400
C682        C  0.40794994  0.36861745  0.75501194    -0.04100
C683        C  0.39372240  0.39260760  0.75426542     0.03100
C684        C  0.40172733  0.42104733  0.74886657    -0.03700
C685        C  0.42414581  0.42507112  0.74403874     0.00100
C686        C  0.43819881  0.40082892  0.74367163    -0.02500
C687        C  0.39981649  0.33975899  0.76200759     0.36800
C688        C  0.43280737  0.45406767  0.73905694     0.40400
C689        C  0.37094982  0.38806804  0.76031571     0.39500
C690        C  0.46093834  0.40475376  0.73704117     0.36400
C691        C  0.43671534  0.33758928  0.69722005     0.37100
C692        C  0.47725081  0.30405059  0.80513464     0.40400
N693        N  0.35278258  0.38446709  0.76511909    -0.37700
N694        N  0.39339264  0.31674638  0.76775602    -0.39300
N695        N  0.43977346  0.47720890  0.73530513    -0.37000
N696        N  0.47906079  0.40771770  0.73153721    -0.39400
N697        N  0.44863708  0.36908903  0.82436275    -0.39200
N698        N  0.48330942  0.29637399  0.82800074    -0.36800
N699        N  0.46388753  0.27140170  0.67826453    -0.37900
N700        N  0.42766273  0.34380797  0.67578799    -0.39500
C701        C  0.41281180  0.11699754  0.74770465    -0.04500
C702        C  0.43306882  0.11351156  0.76146436     0.09700
C703        C  0.43808259  0.08714448  0.77585206    -0.01900
C704        C  0.42276766  0.06432906  0.77656607    -0.00100
C705        C  0.40261435  0.06772021  0.76243459    -0.03700
C706        C  0.39766562  0.09408899  0.74798981     0.03300
C707        C  0.44886410  0.13810318  0.76072006     0.10100
C708        C  0.45911869  0.08331422  0.78930655     0.36000
C709        C  0.37686789  0.09782079  0.73375077     0.39400
C710        C  0.44802705  0.15991612  0.78269144    -0.04100
C711        C  0.46097075  0.18508268  0.78018933     0.03100
C712        C  0.47432867  0.18912920  0.75502915    -0.03700
C713        C  0.47442386  0.16763631  0.73249928     0.00100
C714        C  0.46235591  0.14174254  0.73590207    -0.02500
C715        C  0.43282311  0.15717700  0.80696519     0.36800
C716        C  0.48485910  0.17329636  0.70443747     0.40400
C717        C  0.45981918  0.20733567  0.80307490     0.39500
C718        C  0.46282678  0.11942379  0.71306716     0.36400
C719        C  0.40768568  0.14425823  0.73312960     0.37100
C720        C  0.42800259  0.03693546  0.79079841     0.40400
N721        N  0.45875230  0.22517163  0.82120055    -0.37700
N722        N  0.42044721  0.15508862  0.82602714    -0.39300
N723        N  0.49251909  0.17743709  0.68149307    -0.37000
N724        N  0.46314832  0.10158247  0.69489623    -0.39400
N725        N  0.47593233  0.08008429  0.79993194    -0.39200
N726        N  0.43202767  0.01498197  0.80204275    -0.36800
N727        N  0.36029744  0.10086985  0.72237749    -0.37900
N728        N  0.40379838  0.16610037  0.72158697    -0.39500
C729        C  0.72742734  0.05460592  0.91514999    -0.04500
C730        C  0.71201057  0.07117749  0.89964940     0.09700
C731        C  0.70770280  0.10010054  0.90858692    -0.01900
C732        C  0.71860268  0.11230857  0.93308671    -0.00100
C733        C  0.73446816  0.09601686  0.94818358    -0.03700
C734        C  0.73833933  0.06678513  0.93963236     0.03300
C735        C  0.69947464  0.05757419  0.87485448     0.10100
C736        C  0.69171783  0.11709064  0.89282040     0.36000
C737        C  0.75270707  0.04869398  0.95694927     0.39400
C738        C  0.67825707  0.04742920  0.87977229    -0.04100
C739        C  0.66644917  0.03431508  0.85658461     0.03100
C740        C  0.67590052  0.03078751  0.82826197    -0.03700
C741        C  0.69717361  0.04128851  0.82336939     0.00100
C742        C  0.70884977  0.05463145  0.84660011    -0.02500
C743        C  0.66853540  0.05059366  0.90880828     0.36800
C744        C  0.70736252  0.03797480  0.79465742     0.40400
C745        C  0.64419420  0.02570710  0.86169887     0.39500
C746        C  0.73058652  0.06542484  0.84155169     0.36400
C747        C  0.73177245  0.02479179  0.90613686     0.37100
C748        C  0.71199250  0.14056494  0.94429056     0.40400
N749        N  0.63070879  0.50932319  0.86973467    -0.37700
N750        N  0.66074709  0.05318207  0.93193469    -0.39300
N751        N  0.71556518  0.03547842  0.77178525    -0.37000
N752        N  0.74794209  0.07403757  0.83773035    -0.39400
N753        N  0.67893868  0.13058366  0.88023393    -0.39200
N754        N  0.70607023  0.16282289  0.95325847    -0.36800
N755        N  0.76395504  0.03412935  0.97096286    -0.37900
N756        N  0.73529239  0.00106614  0.89879108    -0.39500
C757        C  0.69894052  0.43043935  0.65639602    -0.04500
C758        C  0.70021016  0.44754211  0.63070427     0.09700
C759        C  0.69063671  0.47536678  0.63029808    -0.01900
C760        C  0.67916848  0.48578059  0.65521512    -0.00100
C761        C  0.67729288  0.46839714  0.68105936    -0.03700
C762        C  0.68763264  0.44070094  0.68145879     0.03300
C763        C  0.71072636  0.43547185  0.60349160     0.10100
C764        C  0.69252073  0.49317824  0.60396684     0.36000
C765        C  0.68630056  0.42198418  0.70717089     0.39400
C766        C  0.69866592  0.41783355  0.58390501    -0.04100
C767        C  0.70853259  0.40580603  0.55856390     0.03100
C768        C  0.73073618  0.41072514  0.55303552    -0.03700
C769        C  0.74238040  0.42995282  0.57163340     0.00100
C770        C  0.73252724  0.44180206  0.59712643    -0.02500
C771        C  0.67603726  0.41213361  0.58991598     0.36800
C772        C  0.76386163  0.43945458  0.56335458     0.40400
C773        C  0.69567378  0.38886983  0.53785229     0.39500
C774        C  0.74474289  0.46069105  0.61675786     0.36400
C775        C  0.70909694  0.40192106  0.65676359     0.37100
C776        C  0.67130564  0.01118293  0.65700718     0.40400
N777        N  0.68539791  0.37553747  0.52121642    -0.37700
N778        N  0.65799629  0.40763592  0.59482020    -0.39300
N779        N  0.78079783  0.44788607  0.55671044    -0.37000
N780        N  0.75449765  0.47576925  0.63242071    -0.39400
N781        N  0.69415559  0.50731496  0.58294114    -0.39200
N782        N  0.66421944  0.03451414  0.65668810    -0.36800
N783        N  0.68550198  0.40690224  0.72759449    -0.37900
N784        N  0.71718357  0.37919341  0.65693129    -0.39500
C785        C  0.58817755  0.11990571  0.75419200    -0.04500
C786        C  0.56590172  0.11605578  0.74877814     0.09700
C787        C  0.55768459  0.08788507  0.74296061    -0.01900
C788        C  0.57161456  0.06356913  0.74307148    -0.00100
C789        C  0.59388252  0.06738084  0.74874425    -0.03700
C790        C  0.60214348  0.09565260  0.75410874     0.03300
C791        C  0.55106237  0.14176747  0.74923032     0.10100
C792        C  0.53487310  0.08407163  0.73674706     0.36000
C793        C  0.62487947  0.09962939  0.76080784     0.39400
C794        C  0.54961679  0.16004224  0.72433540    -0.04100
C795        C  0.53615912  0.18479534  0.72503777     0.03100
C796        C  0.52345881  0.19094061  0.75037142    -0.03700
C797        C  0.52532505  0.17293918  0.77551342     0.00100
C798        C  0.53893017  0.14829289  0.77482963    -0.02500
C799        C  0.56211275  0.15334074  0.69803288     0.36800
C800        C  0.51444277  0.18081749  0.80276433     0.40400
C801        C  0.53565885  0.20419159  0.69976580     0.39500
C802        C  0.54085552  0.12992110  0.80071212     0.36400
C803        C  0.59664773  0.14883524  0.76026964     0.37100
C804        C  0.56311569  0.03471495  0.73667475     0.40400
N805        N  0.53528501  0.21964265  0.67960162    -0.37700
N806        N  0.57211634  0.14788612  0.67711466    -0.39300
N807        N  0.50606412  0.18709314  0.82475419    -0.37000
N808        N  0.54240669  0.11523887  0.82134712    -0.39400
N809        N  0.51665728  0.08122088  0.73179924    -0.39200
N810        N  0.55634028  0.01171295  0.73147077    -0.36800
N811        N  0.64300667  0.10266103  0.76624319    -0.37900
N812        N  0.60340595  0.17192312  0.76509162    -0.39500
C813        C  0.58703567  0.36687886  0.75757885    -0.04500
C814        C  0.56507301  0.37162710  0.76430432     0.09700
C815        C  0.55809573  0.39957272  0.77303138    -0.01900
C816        C  0.57286762  0.42300970  0.77400901    -0.00100
C817        C  0.59476535  0.41862994  0.76619950    -0.03700
C818        C  0.60189845  0.39024419  0.75874210     0.03300
C819        C  0.54925148  0.34707492  0.76196781     0.10100
C820        C  0.53562341  0.40413728  0.78077535     0.36000
C821        C  0.62432139  0.38508041  0.75123071     0.39400
C822        C  0.54565434  0.32868829  0.78635961    -0.04100
C823        C  0.53207510  0.30415769  0.78347650     0.03100
C824        C  0.52137545  0.29842613  0.75641151    -0.03700
C825        C  0.52502431  0.31689044  0.73199161     0.00100
C826        C  0.53872380  0.34136082  0.73489813    -0.02500
C827        C  0.55627069  0.33480177  0.81428914     0.36800
C828        C  0.51627435  0.30941737  0.70323033     0.40400
C829        C  0.53005657  0.28392388  0.80792539     0.39500
C830        C  0.54246907  0.36034942  0.70983531     0.36400
C831        C  0.59419164  0.33797437  0.74884910     0.37100
C832        C  0.56561258  0.45151171  0.78384297     0.40400
N833        N  0.52859978  0.26761318  0.82729277    -0.37700
N834        N  0.56468668  0.33975901  0.83659318    -0.39300
N835        N  0.50978912  0.30351951  0.67997111    -0.37000
N836        N  0.54546677  0.37556777  0.68989390    -0.39400
N837        N  0.51767691  0.40761949  0.78695267    -0.39200
N838        N  0.55989059  0.47423090  0.79182540    -0.36800
N839        N  0.64218225  0.38058135  0.74531057    -0.37900
N840        N  0.59982283  0.31491122  0.74182273    -0.39500
C841        C  0.79033411  0.18380659  0.83954487    -0.04500
C842        C  0.80002819  0.18147733  0.86761504     0.09700
C843        C  0.82097158  0.19283902  0.87210663    -0.01900
C844        C  0.83210707  0.20673713  0.84879158    -0.00100
C845        C  0.82233223  0.20960810  0.82062430    -0.03700
C846        C  0.80138534  0.19776382  0.81613023     0.03300
C847        C  0.78823468  0.16728610  0.89278575     0.10100
C848        C  0.83111712  0.19001055  0.90086323     0.36000
C849        C  0.79085425  0.20044941  0.78764140     0.39400
C850        C  0.79255689  0.13803230  0.90024313    -0.04100
C851        C  0.78371004  0.12582085  0.92622301     0.03100
C852        C  0.76956662  0.14233337  0.94423691    -0.03700
C853        C  0.76519613  0.17165040  0.93657800     0.00100
C854        C  0.77428411  0.18391160  0.91081014    -0.02500
C855        C  0.80667671  0.12078902  0.88151745     0.36800
C856        C  0.75248939  0.18987977  0.95623866     0.40400
C857        C  0.79114978  0.09751836  0.93594859     0.39500
C858        C  0.76980003  0.21399574  0.90323392     0.36400
C859        C  0.76893347  0.17173822  0.83484955     0.37100
C860        C  0.85401633  0.21695409  0.85365085     0.40400
N861        N  0.79783120  0.07525994  0.94362315    -0.37700
N862        N  0.81789137  0.10706033  0.86647689    -0.39300
N863        N  0.74263030  0.20453771  0.97214925    -0.37000
N864        N  0.76618772  0.23797916  0.89713613    -0.39400
N865        N  0.83916491  0.18763058  0.92380923    -0.39200
N866        N  0.87151841  0.22498794  0.85755086    -0.36800
N867        N  0.78243644  0.20251747  0.76490967    -0.37900
N868        N  0.75186224  0.16205866  0.83120557    -0.39500
C869        C  0.80571524  0.29757833  0.62756530    -0.04500
C870        C  0.79363339  0.32256298  0.63504852     0.09700
C871        C  0.79219191  0.33131054  0.66483818    -0.01900
C872        C  0.80349236  0.31587122  0.68700919    -0.00100
C873        C  0.81665337  0.29141417  0.67951663    -0.03700
C874        C  0.81703538  0.28198823  0.64951263     0.03300
C875        C  0.78297406  0.33980639  0.61099008     0.10100
C876        C  0.77928065  0.35660348  0.67255552     0.36000
C877        C  0.82861371  0.25585224  0.64083109     0.39400
C878        C  0.76102859  0.33515409  0.60401973    -0.04100
C879        C  0.75221802  0.34679247  0.57778437     0.03100
C880        C  0.76511488  0.36413869  0.55890430    -0.03700
C881        C  0.78687120  0.36974869  0.56665398     0.00100
C882        C  0.79561836  0.35802376  0.59279543    -0.02500
C883        C  0.74769866  0.31761974  0.62345549     0.36800
C884        C  0.80065557  0.38634006  0.54690907     0.40400
C885        C  0.73056160  0.33849310  0.56901132     0.39500
C886        C  0.81787698  0.36407572  0.60071054     0.36400
C887        C  0.80653912  0.28802513  0.59692009     0.37100
C888        C  0.80155401  0.32580146  0.71738907     0.40400
N889        N  0.71338073  0.33109458  0.56225323    -0.37700
N890        N  0.73699102  0.30387941  0.63911327    -0.39300
N891        N  0.81165946  0.39937236  0.53100743    -0.37000
N892        N  0.83560892  0.36895409  0.60712461    -0.39400
N893        N  0.76893891  0.37673354  0.67868704    -0.39200
N894        N  0.79979345  0.33379113  0.74158270    -0.36800
N895        N  0.83772413  0.23498646  0.63362120    -0.37900
N896        N  0.80712379  0.28065781  0.57242575    -0.39500
C897        C  0.20931370  0.31451437  0.84403271    -0.04500
C898        C  0.20027608  0.31543896  0.87262669     0.09700
C899        C  0.17986246  0.30270956  0.87767415    -0.01900
C900        C  0.16832136  0.28952338  0.85424493    -0.00100
C901        C  0.17700298  0.28919984  0.82518465    -0.03700
C902        C  0.19770765  0.30174590  0.82033846     0.03300
C903        C  0.21222169  0.32940232  0.89787545     0.10100
C904        C  0.17074591  0.30315821  0.90724993     0.36000
C905        C  0.20748196  0.30100738  0.79117332     0.39400
C906        C  0.20678758  0.35780811  0.90736542    -0.04100
C907        C  0.21605541  0.36962301  0.93336692     0.03100
C908        C  0.23096713  0.35312270  0.95008788    -0.03700
C909        C  0.23616761  0.32450543  0.94056007     0.00100
C910        C  0.22731363  0.31308897  0.91417188    -0.02500
C911        C  0.19106210  0.37447149  0.89076074     0.36800
C912        C  0.24981501  0.30612015  0.95861363     0.40400
C913        C  0.20871905  0.39772422  0.94408822     0.39500
C914        C  0.23338290  0.28421167  0.90399041     0.36400
C915        C  0.23075144  0.32637395  0.83915162     0.37100
C916        C  0.14724231  0.27698394  0.86027776     0.40400
N917        N  0.20231414  0.41999155  0.95237597    -0.37700
N918        N  0.17845260  0.38762066  0.87749417    -0.39300
N919        N  0.26046844  0.29126973  0.97317534    -0.37000
N920        N  0.23832571  0.26128697  0.89564159    -0.39400
N921        N  0.16352854  0.30358354  0.93085554    -0.39200
N922        N  0.13048729  0.26689274  0.86525432    -0.36800
N923        N  0.21528649  0.30051558  0.76791269    -0.37900
N924        N  0.24793655  0.33558674  0.83532591    -0.39500
C925        C  0.21156924  0.19375540  0.66335041    -0.04500
C926        C  0.20308202  0.19102698  0.63462207     0.09700
C927        C  0.18218996  0.20154290  0.62846362    -0.01900
C928        C  0.16978063  0.21480844  0.65098289    -0.00100
C929        C  0.17830947  0.21797431  0.67992407    -0.03700
C930        C  0.19939527  0.20740202  0.68586315     0.03300
C931        C  0.21607404  0.17678778  0.61071431     0.10100
C932        C  0.17331229  0.19813895  0.59895233     0.36000
C933        C  0.20894207  0.21101291  0.71493374     0.39400
C934        C  0.21439798  0.14649176  0.60587179    -0.04100
C935        C  0.22446312  0.13353887  0.58111995     0.03100
C936        C  0.23774104  0.15044185  0.56232171    -0.03700
C937        C  0.24016173  0.18070046  0.56811337     0.00100
C938        C  0.22922392  0.19380210  0.59206829    -0.02500
C939        C  0.20206411  0.12871848  0.62630461     0.36800
C940        C  0.25336037  0.19864635  0.54883014     0.40400
C941        C  0.21928818  0.10358836  0.57366412     0.39500
C942        C  0.23123153  0.22491522  0.59739520     0.36400
C943        C  0.23280466  0.18205820  0.66970997     0.37100
C944        C  0.14788147  0.22393311  0.64445190     0.40400
N945        N  0.21438269  0.07984419  0.56803948    -0.37700
N946        N  0.19246048  0.11452547  0.64285466    -0.39300
N947        N  0.26386697  0.21296304  0.53344324    -0.37000
N948        N  0.23280657  0.24972892  0.60170200    -0.39400
N949        N  0.16622263  0.19535418  0.57543637    -0.39200
N950        N  0.13039816  0.23109390  0.63918877    -0.36800
N951        N  0.21663166  0.21384353  0.73808813    -0.37900
N952        N  0.24969050  0.17247790  0.67460675    -0.39500
C953        C  0.04593614  0.41750451  0.72202234    -0.04500
C954        C  0.04990689  0.40024066  0.74713577     0.09700
C955        C  0.04005120  0.40743077  0.77432757    -0.01900
C956        C  0.02642456  0.43197142  0.77647458    -0.00100
C957        C  0.02203714  0.44895285  0.75119672    -0.03700
C958        C  0.03236464  0.44206562  0.72413788     0.03300
C959        C  0.06533049  0.37524597  0.74524621     0.10100
C960        C  0.04438407  0.38990157  0.80026733     0.36000
C961        C  0.02984619  0.46100476  0.69876636     0.39400
C962        C  0.08776199  0.38024778  0.74773124    -0.04100
C963        C  0.10231037  0.35661424  0.74675490     0.03100
C964        C  0.09448677  0.32786791  0.74285206    -0.03700
C965        C  0.07208696  0.32308893  0.73916707     0.00100
C966        C  0.05753992  0.34665314  0.74081980    -0.02500
C967        C  0.09579083  0.40974611  0.75177598     0.36800
C968        C  0.06406657  0.29406330  0.73245827     0.40400
C969        C  0.12521662  0.36180724  0.75103132     0.39500
C970        C  0.03450337  0.34154779  0.73813400     0.36400
C971        C  0.05609805  0.41010142  0.69408294     0.37100
C972        C  0.01852110  0.44110563  0.80520570     0.40400
N973        N  0.14348144  0.36593947  0.75453065    -0.37700
N974        N  0.10213693  0.43331962  0.75490790    -0.39300
N975        N  0.05767956  0.27100658  0.72663817    -0.37000
N976        N  0.01610780  0.33754409  0.73612696    -0.39400
N977        N  0.04781373  0.37586622  0.82093746    -0.39200
N978        N  0.01278101  0.44839309  0.82843275    -0.36800
N979        N  0.02799102  0.47618913  0.67855244    -0.37900
N980        N  0.06423761  0.40407733  0.67184871    -0.39500
C981        C  0.08766807  0.12747782  0.75532336    -0.04500
C982        C  0.06553664  0.13208551  0.76108975     0.09700
C983        C  0.05801253  0.16038543  0.76753486    -0.01900
C984        C  0.07252994  0.18411705  0.76788102    -0.00100
C985        C  0.09455556  0.17975857  0.76099007    -0.03700
C986        C  0.10213905  0.15127563  0.75507956     0.03300
C987        C  0.05016963  0.10694305  0.76068744     0.10100
C988        C  0.03527413  0.16497657  0.77366715     0.36000
C989        C  0.12468301  0.14652969  0.74780982     0.39400
C990        C  0.04470018  0.09278677  0.78727121    -0.04100
C991        C  0.03105503  0.06815976  0.78677349     0.03100
C992        C  0.02255103  0.05780405  0.75968185    -0.03700
C993        C  0.02867433  0.07141609  0.73300288     0.00100
C994        C  0.04198443  0.09638598  0.73358681    -0.02500
C995        C  0.05370039  0.10310831  0.81501806     0.36800
C996        C  0.02311192  0.05826197  0.70483430     0.40400
C997        C  0.02702435  0.05226374  0.81389916     0.39500
C998        C  0.04771018  0.11088895  0.70622700     0.36400
C999        C  0.09546878  0.09819193  0.74951503     0.37100
C1000       C  0.06497876  0.21276868  0.77671096     0.40400
N1001       N  0.02410874  0.03939533  0.83550362    -0.37700
N1002       N  0.06094050  0.11139519  0.83709723    -0.39300
N1003       N  0.01942345  0.04779369  0.68206649    -0.37000
N1004       N  0.05224768  0.12248194  0.68440139    -0.39400
N1005       N  0.01710828  0.16846246  0.77849460    -0.39200
N1006       N  0.05894678  0.23547673  0.78426486    -0.36800
N1007       N  0.14265904  0.14273858  0.74197579    -0.37900
N1008       N  0.10162756  0.07479289  0.74493106    -0.39500
C1009       C  0.95255451  0.08729078  0.71967840    -0.04500
C1010       C  0.94641095  0.10505085  0.74374327     0.09700
C1011       C  0.95386308  0.09843259  0.77243372    -0.01900
C1012       C  0.96739709  0.07415551  0.77704574    -0.00100
C1013       C  0.97385087  0.05660864  0.75289548    -0.03700
C1014       C  0.96586891  0.06282256  0.72431238     0.03300
C1015       C  0.93100864  0.12976139  0.73931113     0.10100
C1016       C  0.94707638  0.11625071  0.79732999     0.36000
C1017       C  0.97017169  0.04296170  0.69998069     0.39400
C1018       C  0.90888255  0.12592628  0.74573392    -0.04100
C1019       C  0.89464112  0.14982978  0.74447209     0.03100
C1020       C  0.90233415  0.17760343  0.73601522    -0.03700
C1021       C  0.92430726  0.18111867  0.72822225     0.00100
C1022       C  0.93859917  0.15721562  0.72985080    -0.02500
C1023       C  0.90083753  0.09734305  0.75393135     0.36800
C1024       C  0.93218432  0.20924664  0.71830882     0.40400
C1025       C  0.87235893  0.14623726  0.75375764     0.39500
C1026       C  0.96116487  0.16076961  0.72200571     0.36400
C1027       C  0.94467443  0.09383026  0.69026432     0.37100
C1028       C  0.97321083  0.06602185  0.80691246     0.40400
N1029       N  0.85462671  0.14355788  0.76138747    -0.37700
N1030       N  0.89440575  0.07450069  0.76031346    -0.39300
N1031       N  0.93851522  0.23162473  0.71026825    -0.37000
N1032       N  0.97916499  0.16334892  0.71561710    -0.39400
N1033       N  0.94155055  0.13044087  0.81714599    -0.39200
N1034       N  0.97728389  0.05961517  0.83098456    -0.36800
N1035       N  0.97328339  0.02691308  0.68062975    -0.37900
N1036       N  0.93841701  0.09915572  0.66680135    -0.39500
C1037       C  0.95824945  0.40268088  0.73566076    -0.04500
C1038       C  0.94859393  0.39513981  0.76283191     0.09700
C1039       C  0.95188234  0.41300082  0.78785265    -0.01900
C1040       C  0.96375601  0.43917097  0.78534311    -0.00100
C1041       C  0.97346570  0.44686876  0.75811162    -0.03700
C1042       C  0.97044623  0.42860063  0.73318709     0.03300
C1043       C  0.93279011  0.37043173  0.76403269     0.10100
C1044       C  0.94282964  0.40448709  0.81611351     0.36000
C1045       C  0.97810670  0.43756928  0.70435823     0.39400
C1046       C  0.93956592  0.34203643  0.77138616    -0.04100
C1047       C  0.92481784  0.31852507  0.76984243     0.03100
C1048       C  0.90299496  0.32358809  0.76225778    -0.03700
C1049       C  0.89602948  0.35225993  0.75633963     0.00100
C1050       C  0.91097629  0.37549542  0.75663704    -0.02500
C1051       C  0.96169875  0.33711722  0.78047374     0.36800
C1052       C  0.87367077  0.35767288  0.74857500     0.40400
C1053       C  0.93207276  0.28913922  0.77614652     0.39500
C1054       C  0.90409579  0.40458024  0.74842704     0.36400
C1055       C  0.95506108  0.38404299  0.71001584     0.37100
C1056       C  0.96500318  0.45891862  0.81043272     0.40400
N1057       N  0.93786809  0.26567731  0.78107432    -0.37700
N1058       N  0.97931040  0.33328371  0.78802178    -0.39300
N1059       N  0.85582237  0.36194182  0.74243662    -0.37000
N1060       N  0.89873189  0.42776892  0.74165580    -0.39400
N1061       N  0.93579350  0.39747150  0.83870971    -0.39200
N1062       N  0.96577453  0.47486375  0.83031460    -0.36800
N1063       N  0.98358929  0.44435927  0.68091179    -0.37900
N1064       N  0.95250926  0.36909352  0.68962822    -0.39500
C1065       C  0.98752269  0.97671482  0.76125597     0.03300
C1066       C  0.01033391  0.97719966  0.76081055     0.03200
C1067       C  0.01911578  0.50273200  0.75400945    -0.17300
C1068       C  0.00765885  0.52902229  0.75607740     0.03300
C1069       C  0.98477644  0.52840139  0.75627120     0.03200
C1070       C  0.97610685  0.00302953  0.75942084    -0.17300
H1071       H  0.95866224  0.00260219  0.75889025     0.05300
H1072       H  0.03655352  0.50327782  0.75322440     0.05300
O1073       O  0.14979471  0.75197339  0.70477453    -0.56800
C1074       C  0.10748001  0.80088392  0.74983444     0.75800
O1075       O  0.11468967  0.71670160  0.78400202    -0.58000
C1076       C  0.16431520  0.73296088  0.70867401     0.75800
C1077       C  0.16341947  0.77412849  0.80310618     0.78200
Cd1078     Cd  0.13653459  0.75245402  0.75584512     1.37500
O1079       O  0.12518327  0.80014341  0.73588984    -0.56800
O1080       O  0.16107236  0.78746646  0.77897158    -0.55600
C1081       C  0.10811401  0.70280345  0.76144869     0.78100
O1082       O  0.15405067  0.74960106  0.80502597    -0.58000
O1083       O  0.10280217  0.77874742  0.76510668    -0.56500
O1084       O  0.16661778  0.72387308  0.73489087    -0.56400
O1085       O  0.11477654  0.71162528  0.73659054    -0.55600
O1086       O  0.84976798  0.76408919  0.69871122    -0.56800
C1087       C  0.88682495  0.70535533  0.74664977     0.75800
O1088       O  0.86822159  0.80344099  0.77374828    -0.58000
C1089       C  0.83273745  0.77854128  0.70380202     0.75800
C1090       C  0.83320281  0.73432443  0.80079201     0.78200
Cd1091     Cd  0.85872299  0.75541442  0.75199064     1.37500
O1092       O  0.86875332  0.70581359  0.73346235    -0.56800
O1093       O  0.83106046  0.72461270  0.77475355    -0.55600
C1094       C  0.88698267  0.80411403  0.76258014     0.78100
O1095       O  0.84683315  0.75468368  0.80423957    -0.58000
O1096       O  0.89184299  0.72795585  0.76118381    -0.56500
O1097       O  0.82753254  0.78083384  0.73069927    -0.56400
O1098       O  0.89242059  0.78255668  0.74676018    -0.55600
O1099       O  0.62624469  0.94519868  0.77695713    -0.56800
C1100       C  0.66436843  0.51802385  0.80462023     0.75800
O1101       O  0.64868474  0.99041548  0.70457232    -0.58000
C1102       C  0.60908010  0.94354366  0.76178330     0.75800
C1103       C  0.60701013  0.54194972  0.75570431     0.78200
Cd1104     Cd  0.63734652  0.49469691  0.75749013     1.37500
O1105       O  0.65252851  0.49572790  0.80818324    -0.56800
O1106       O  0.61096744  0.52807010  0.77917065    -0.55600
C1107       C  0.66487444  0.97408934  0.70844088     0.78100
O1108       O  0.61702249  0.53407102  0.73255615    -0.58000
O1109       O  0.66442944  0.52870691  0.77884727    -0.56500
O1110       O  0.60510780  0.96454555  0.74465656    -0.56400
O1111       O  0.66830861  0.96638811  0.73482750    -0.55600
C1112       C  0.48527945  0.77023343  0.75138377     0.03300
C1113       C  0.50811608  0.77033407  0.75199778     0.03200
C1114       C  0.51916871  0.74366302  0.75250947    -0.17300
C1115       C  0.50804941  0.71702781  0.75404697     0.03300
C1116       C  0.48522017  0.71701846  0.75496909     0.03200
C1117       C  0.47413675  0.74359166  0.75282252    -0.17300
H1118       H  0.45673321  0.74359199  0.75301306     0.05300
H1119       H  0.53657516  0.74367534  0.75263094     0.05300
O1120       O  0.33989617  0.50096770  0.80305310    -0.56800
C1121       C  0.38459479  0.54443111  0.76215594     0.75800
O1122       O  0.36742824  0.94491517  0.74052534    -0.58000
C1123       C  0.33104982  0.97872330  0.80598582     0.75800
C1124       C  0.32996923  0.51509582  0.70535497     0.78200
Cd1125     Cd  0.35674932  0.49492632  0.75392451     1.37500
O1126       O  0.37589871  0.53179624  0.78398840    -0.56800
O1127       O  0.32752023  0.52398089  0.73165872    -0.55600
C1128       C  0.38635777  0.94527278  0.75100322     0.78100
O1129       O  0.34441458  0.49592456  0.70154543    -0.58000
O1130       O  0.38031825  0.53426495  0.73675660    -0.56500
O1131       O  0.33059049  0.96553664  0.78140571    -0.56400
O1132       O  0.39221696  0.96852813  0.76376726    -0.55600
C1133       C  0.25448229  0.88809110  0.97986703     0.03300
C1134       C  0.23998971  0.86425251  0.97885491     0.03200
C1135       C  0.23358453  0.85105526  0.00531514    -0.17300
C1136       C  0.24096011  0.86118805  0.03287417     0.03300
C1137       C  0.25545284  0.88523548  0.03390367     0.03200
C1138       C  0.26174931  0.89845278  0.00730079    -0.17300
H1139       H  0.27289062  0.91671144  0.00790634     0.05300
H1140       H  0.22252239  0.83271844  0.00444834     0.05300
C1141       C  0.01213680  0.97064688  0.25643630     0.03300
C1142       C  0.98935462  0.97038611  0.25513289     0.03200
C1143       C  0.97896943  0.49561134  0.25101850    -0.17300
C1144       C  0.98949359  0.52259878  0.25215238     0.03300
C1145       C  0.01231248  0.52353605  0.25339701     0.03200
C1146       C  0.02395422  0.49730371  0.25355874    -0.17300
H1147       H  0.04136814  0.49794054  0.25439465     0.05300
H1148       H  0.96154192  0.49495812  0.25036224     0.05300
O1149       O  0.12410584  0.79223138  0.27720415    -0.56800
C1150       C  0.16952795  0.72911527  0.30226402     0.75800
O1151       O  0.12393890  0.70383687  0.23428753    -0.58000
C1152       C  0.11101407  0.79583764  0.25597824     0.75800
C1153       C  0.16983756  0.76846846  0.21051718     0.78200
Cd1154     Cd  0.14082109  0.74799634  0.25608210     1.37500
O1155       O  0.15635608  0.74987977  0.30639632    -0.56800
O1156       O  0.16901112  0.77992471  0.23598189    -0.55600
C1157       C  0.11092931  0.69961206  0.25554943     0.78100
O1158       O  0.15750707  0.74669716  0.20631106    -0.58000
O1159       O  0.16967019  0.71796245  0.27662242    -0.56500
O1160       O  0.11174413  0.77727469  0.23526135    -0.56400
O1161       O  0.11209526  0.71750892  0.27683424    -0.55600
O1162       O  0.84548996  0.74452423  0.30840172    -0.56800
C1163       C  0.89106124  0.69847744  0.26195398     0.75800
O1164       O  0.84777247  0.74547598  0.20679808    -0.58000
C1165       C  0.83314321  0.76630248  0.30544951     0.75800
C1166       C  0.88958417  0.79566348  0.25502110     0.78200
Cd1167     Cd  0.86093437  0.74638561  0.25821842     1.37500
O1168       O  0.87664683  0.70249130  0.28143442    -0.56800
O1169       O  0.88925647  0.77857471  0.27688141    -0.55600
C1170       C  0.83406453  0.72527252  0.21041832     0.78100
O1171       O  0.87621894  0.79028625  0.23449038    -0.58000
O1172       O  0.89169118  0.71698970  0.24135875    -0.56500
O1173       O  0.83282192  0.77796287  0.28012778    -0.56400
O1174       O  0.83216234  0.71581347  0.23652737    -0.55600
O1175       O  0.62625355  0.96400697  0.22710745    -0.56800
C1176       C  0.67305329  0.52709782  0.20715784     0.75800
O1177       O  0.62438379  0.54534954  0.27686792    -0.58000
C1178       C  0.61317728  0.95731186  0.24758146     0.75800
C1179       C  0.66946558  0.98441169  0.29993483     0.78200
Cd1180     Cd  0.64306366  0.50466160  0.25044201     1.37500
O1181       O  0.65816396  0.50928300  0.20046076    -0.56800
O1182       O  0.66734477  0.97149181  0.27531360    -0.55600
C1183       C  0.61247964  0.55209323  0.25516859     0.78100
O1184       O  0.65926951  0.00819213  0.30299464    -0.58000
O1185       O  0.67438296  0.53387336  0.23422384    -0.56500
O1186       O  0.61400911  0.97300799  0.27061118    -0.56400
O1187       O  0.61499393  0.53717857  0.23188468    -0.55600
O1188       O  0.34291784  0.50311148  0.20452198    -0.56800
C1189       C  0.39001840  0.55256920  0.24934078     0.75800
O1190       O  0.34770878  0.50574744  0.30711173    -0.58000
C1191       C  0.33190810  0.98083643  0.20749749     0.75800
C1192       C  0.39209229  0.95566074  0.25306170     0.78200
Cd1193     Cd  0.35993457  0.50418572  0.25443320     1.37500
O1194       O  0.37589030  0.54778620  0.22958645    -0.56800
O1195       O  0.39110126  0.97352739  0.23190953    -0.55600
C1196       C  0.33320861  0.52485810  0.30338702     0.78100
O1197       O  0.37896648  0.95983653  0.27418299    -0.58000
O1198       O  0.38953582  0.53553323  0.27122135    -0.56500
O1199       O  0.33167393  0.97267243  0.23415177    -0.56400
O1200       O  0.33053387  0.53304382  0.27693678    -0.55600
C1201       C  0.51400561  0.78070482  0.24353097     0.03300
C1202       C  0.49114191  0.78067455  0.24249684     0.03200
C1203       C  0.47999598  0.75408292  0.24223726    -0.17300
C1204       C  0.49080918  0.72737027  0.24382693     0.03300
C1205       C  0.51367729  0.72730782  0.24518122     0.03200
C1206       C  0.52486538  0.75396452  0.24479675    -0.17300
H1207       H  0.54256002  0.75389658  0.24576217     0.05300
H1208       H  0.46222579  0.75421198  0.24152914     0.05300
C1209       C  0.76137748  0.63544538  0.97435461     0.03300
C1210       C  0.74565840  0.61287485  0.97584825     0.03200
C1211       C  0.73919999  0.60269440  0.00377290    -0.17300
C1212       C  0.74774194  0.61438591  0.03005595     0.03300
C1213       C  0.76357584  0.63660951  0.02845240     0.03200
C1214       C  0.77033044  0.64648385  0.00068577    -0.17300
H1215       H  0.78247068  0.66348482  0.99956525     0.05300
H1216       H  0.72705513  0.58571845  0.00510680     0.05300
C1217       C  0.25736223  0.61841165  0.53487607     0.03300
C1218       C  0.24312757  0.64254453  0.53461867     0.03200
C1219       C  0.23680865  0.65442060  0.50746335    -0.17300
C1220       C  0.24412197  0.64295417  0.48042926     0.03300
C1221       C  0.25883754  0.61927935  0.48058064     0.03200
C1222       C  0.26510438  0.60738063  0.50785246    -0.17300
H1223       H  0.27621710  0.58917020  0.50804876     0.05300
H1224       H  0.22565336  0.67258845  0.50735029     0.05300
C1225       C  0.74198908  0.89572432  0.52773415     0.03300
C1226       C  0.75719274  0.87284138  0.53025502     0.03200
C1227       C  0.76507558  0.85941098  0.50447772    -0.17300
C1228       C  0.75875233  0.86866082  0.47630030     0.03300
C1229       C  0.74426006  0.89235255  0.47381809     0.03200
C1230       C  0.73595718  0.90533898  0.49954315    -0.17300
H1231       H  0.72451983  0.92308653  0.49758499     0.05300
H1232       H  0.77657177  0.84172446  0.50638107     0.05300
C1233       C  0.26627987  0.57618322  0.40844206    -0.04500
C1234       C  0.28875807  0.57866791  0.40405365     0.09700
C1235       C  0.30121155  0.59522880  0.42413531    -0.01900
C1236       C  0.29130596  0.60897748  0.44860463    -0.00100
C1237       C  0.26871682  0.60660843  0.45311248    -0.03700
C1238       C  0.25631817  0.58973083  0.43305234     0.03300
C1239       C  0.29932765  0.56420698  0.37793741     0.10100
C1240       C  0.32431061  0.59799934  0.41963147     0.36000
C1241       C  0.23359627  0.58455365  0.43853084     0.39400
C1242       C  0.30170661  0.57959744  0.35127171    -0.04100
C1243       C  0.31234070  0.56668926  0.32687291     0.03100
C1244       C  0.32056493  0.53779678  0.32869649    -0.03700
C1245       C  0.31725040  0.52199205  0.35529618     0.00100
C1246       C  0.30694969  0.53530972  0.37983193    -0.02500
C1247       C  0.29321158  0.60899151  0.34911132     0.36800
C1248       C  0.34647512  0.00935858  0.36160693     0.40400
C1249       C  0.31517174  0.58381277  0.30024760     0.39500
C1250       C  0.30416344  0.51931169  0.40719045     0.36400
C1251       C  0.25345668  0.55935151  0.38764144     0.37100
C1252       C  0.30450669  0.62518648  0.46952011     0.40400
N1253       N  0.31732662  0.59754941  0.27903251    -0.37700
N1254       N  0.28633124  0.63237783  0.34754240    -0.39300
N1255       N  0.36054805  0.99348892  0.36634588    -0.37000
N1256       N  0.30193197  0.50662615  0.42905638    -0.39400
N1257       N  0.34273914  0.60025658  0.41604055    -0.39200
N1258       N  0.31496787  0.63805114  0.48631539    -0.36800
N1259       N  0.21548753  0.57966298  0.44244775    -0.37900
N1260       N  0.24329112  0.54594095  0.37095084    -0.39500
C1261       C  0.45355267  0.84236909  0.22006064    -0.04500
C1262       C  0.45166872  0.85794692  0.24690059     0.09700
C1263       C  0.46295183  0.84843523  0.27211882    -0.01900
C1264       C  0.47578500  0.82314971  0.27068009    -0.00100
C1265       C  0.47824882  0.80800158  0.24362284    -0.03700
C1266       C  0.46653978  0.81720344  0.21852824     0.03300
C1267       C  0.43661320  0.88326854  0.24917102     0.10100
C1268       C  0.46088678  0.86437105  0.29975164     0.36000
C1269       C  0.46676162  0.79979589  0.19167539     0.39400
C1270       C  0.41575936  0.87933830  0.26107476    -0.04100
C1271       C  0.40131792  0.90301937  0.26281004     0.03100
C1272       C  0.40767580  0.93093652  0.25266212    -0.03700
C1273       C  0.42878709  0.93480852  0.24108477     0.00100
C1274       C  0.44316339  0.91103472  0.23941786    -0.02500
C1275       C  0.40912682  0.85071252  0.27128591     0.36800
C1276       C  0.43603155  0.96331567  0.23135322     0.40400
C1277       C  0.37962583  0.89816107  0.27391276     0.39500
C1278       C  0.46481910  0.91503830  0.22780668     0.36400
C1279       C  0.44169463  0.85190124  0.19421331     0.37100
C1280       C  0.48452864  0.81111775  0.29771001     0.40400
N1281       N  0.36233728  0.89417163  0.28276701    -0.37700
N1282       N  0.40392674  0.82787760  0.27950167    -0.39300
N1283       N  0.44193177  0.98594969  0.22344327    -0.37000
N1284       N  0.48211313  0.91804810  0.21858212    -0.39400
N1285       N  0.45919953  0.87714360  0.32175249    -0.39200
N1286       N  0.49083199  0.80139849  0.31962444    -0.36800
N1287       N  0.46667751  0.78572606  0.17036504    -0.37900
N1288       N  0.43228409  0.85954711  0.17356523    -0.39500
C1289       C  0.41646633  0.62635392  0.23239209    -0.04500
C1290       C  0.43644036  0.62371421  0.24706869     0.09700
C1291       C  0.44167301  0.59742878  0.26129939    -0.01900
C1292       C  0.42673049  0.57409164  0.26165042    -0.00100
C1293       C  0.40634487  0.57674319  0.24740037    -0.03700
C1294       C  0.40165455  0.60288521  0.23201806     0.03300
C1295       C  0.45189451  0.64890530  0.24730467     0.10100
C1296       C  0.46256624  0.59442879  0.27546926     0.36000
C1297       C  0.38154329  0.60612998  0.21597377     0.39400
C1298       C  0.45212918  0.66851330  0.27140639    -0.04100
C1299       C  0.46449759  0.69433317  0.26999076     0.03100
C1300       C  0.47767354  0.70001066  0.24505739    -0.03700
C1301       C  0.47725932  0.68042176  0.22084519     0.00100
C1302       C  0.46469812  0.65473524  0.22219820    -0.02500
C1303       C  0.43940587  0.66223732  0.29756225     0.36800
C1304       C  0.48800727  0.68793007  0.19344360     0.40400
C1305       C  0.46284919  0.71571021  0.29364332     0.39500
C1306       C  0.46454043  0.63445528  0.19749597     0.36400
C1307       C  0.41105803  0.65363790  0.21804133     0.37100
C1308       C  0.43284197  0.54708070  0.27599453     0.40400
N1309       N  0.46138113  0.73296834  0.31228592    -0.37700
N1310       N  0.42942404  0.65712756  0.31855951    -0.39300
N1311       N  0.49601351  0.69381003  0.17112218    -0.37000
N1312       N  0.46437314  0.61817920  0.17787012    -0.39400
N1313       N  0.47924772  0.59205142  0.28670958    -0.39200
N1314       N  0.43776251  0.52558053  0.28746937    -0.36800
N1315       N  0.36564905  0.60883589  0.20283652    -0.37900
N1316       N  0.40687021  0.67550883  0.20675324    -0.39500
C1317       C  0.68755014  0.95950301  0.37635659    -0.04500
C1318       C  0.70697788  0.94493510  0.36962573     0.09700
C1319       C  0.71475617  0.94460028  0.34036801    -0.01900
C1320       C  0.70266354  0.95773766  0.31758648    -0.00100
C1321       C  0.68285641  0.97185161  0.32410115    -0.03700
C1322       C  0.67551307  0.97291268  0.35375960     0.03300
C1323       C  0.71891716  0.92962177  0.39367724     0.10100
C1324       C  0.73531909  0.93091545  0.33386720     0.36000
C1325       C  0.65626916  0.48666427  0.35739794     0.39400
C1326       C  0.71228070  0.90155335  0.40260468    -0.04100
C1327       C  0.72111635  0.88885280  0.42821567     0.03100
C1328       C  0.73688184  0.90402768  0.44484450    -0.03700
C1329       C  0.74353066  0.93216325  0.43573324     0.00100
C1330       C  0.73498574  0.94453871  0.40979550    -0.02500
C1331       C  0.69558408  0.88634992  0.38610794     0.36800
C1332       C  0.75795505  0.94934665  0.45414359     0.40400
C1333       C  0.71229451  0.86158470  0.43898215     0.39500
C1334       C  0.74211969  0.97312200  0.40016428     0.36400
C1335       C  0.67992026  0.96047729  0.40670881     0.37100
C1336       C  0.71084818  0.95699255  0.28753062     0.40400
N1337       N  0.70470045  0.84010810  0.44746132    -0.37700
N1338       N  0.68221493  0.87428369  0.37299252    -0.39300
N1339       N  0.76921122  0.96330915  0.46895924    -0.37000
N1340       N  0.74785020  0.99583996  0.39227832    -0.39400
N1341       N  0.75182236  0.92020157  0.32882159    -0.39200
N1342       N  0.71734475  0.95627995  0.26353727    -0.36800
N1343       N  0.64009326  0.49803115  0.36295147    -0.37900
N1344       N  0.67396588  0.96118129  0.43096210    -0.39500
C1345       C  0.70867451  0.59724221  0.09283644    -0.04500
C1346       C  0.72179000  0.58080665  0.11197220     0.09700
C1347       C  0.74366633  0.57611740  0.10485769    -0.01900
C1348       C  0.75222002  0.58688388  0.07809157    -0.00100
C1349       C  0.73911798  0.60344588  0.05883224    -0.03700
C1350       C  0.71721362  0.60832058  0.06627995     0.03300
C1351       C  0.71176619  0.56598228  0.13797880     0.10100
C1352       C  0.75719353  0.55957827  0.12484209     0.36000
C1353       C  0.70316949  0.62389032  0.04613367     0.39400
C1354       C  0.70413787  0.53714526  0.13496804    -0.04100
C1355       C  0.69232376  0.52400835  0.15800422     0.03100
C1356       C  0.68774155  0.53981071  0.18428971    -0.03700
C1357       C  0.69636555  0.56840100  0.18771237     0.00100
C1358       C  0.70831681  0.58133934  0.16458381    -0.02500
C1359       C  0.70788145  0.52129829  0.10759424     0.36800
C1360       C  0.69217221  0.58532144  0.21428369     0.40400
C1361       C  0.68498900  0.49410983  0.15441028     0.39500
C1362       C  0.71651350  0.61088354  0.16765349     0.36400
C1363       C  0.68616651  0.60211239  0.10024526     0.37100
C1364       C  0.77389595  0.57868819  0.06941111     0.40400
N1365       N  0.67909777  0.47029653  0.15147081    -0.37700
N1366       N  0.71084966  0.50873433  0.08572679    -0.39300
N1367       N  0.68888339  0.59892490  0.23542592    -0.37000
N1368       N  0.72302774  0.63446451  0.16997553    -0.39400
N1369       N  0.76799152  0.54645133  0.14083832    -0.39200
N1370       N  0.79110532  0.57136731  0.06279968    -0.36800
N1371       N  0.69193438  0.63610802  0.02995629    -0.37900
N1372       N  0.66824200  0.60597816  0.10630277    -0.39500
C1373       C  0.55335468  0.66682995  0.22554400    -0.04500
C1374       C  0.55258695  0.64941586  0.25114753     0.09700
C1375       C  0.53892517  0.65733515  0.27477058    -0.01900
C1376       C  0.52640034  0.68292482  0.27308037    -0.00100
C1377       C  0.52648072  0.69983292  0.24699190    -0.03700
C1378       C  0.54022083  0.69178333  0.22332695     0.03300
C1379       C  0.56732246  0.62379265  0.25396067     0.10100
C1380       C  0.53829908  0.63952572  0.30119332     0.36000
C1381       C  0.54136346  0.70969945  0.19699358     0.39400
C1382       C  0.58745458  0.62706148  0.26815777    -0.04100
C1383       C  0.60187811  0.60333355  0.26976861     0.03100
C1384       C  0.59647130  0.57630378  0.25640919    -0.03700
C1385       C  0.57602712  0.57301680  0.24264909     0.00100
C1386       C  0.56147482  0.59662398  0.24168396    -0.02500
C1387       C  0.59354123  0.65526047  0.28027150     0.36800
C1388       C  0.56975407  0.54526815  0.22965768     0.40400
C1389       C  0.62264547  0.60732068  0.28404071     0.39500
C1390       C  0.54049592  0.59313137  0.22782098     0.36400
C1391       C  0.56830452  0.65960648  0.20193667     0.37100
C1392       C  0.51508296  0.69306974  0.29919557     0.40400
N1393       N  0.63917160  0.61061516  0.29552146    -0.37700
N1394       N  0.59829838  0.67787078  0.28972798    -0.39300
N1395       N  0.56474717  0.52321521  0.21913331    -0.37000
N1396       N  0.52374318  0.59039709  0.21681786    -0.39400
N1397       N  0.53781710  0.62528630  0.32225052    -0.39200
N1398       N  0.50664431  0.70097640  0.32059551    -0.36800
N1399       N  0.54228581  0.72408221  0.17605814    -0.37900
N1400       N  0.58037479  0.65395866  0.18324013    -0.39500
C1401       C  0.58831927  0.88308129  0.22827850    -0.04500
C1402       C  0.56800258  0.88508286  0.24230224     0.09700
C1403       C  0.56216593  0.91110707  0.25688671    -0.01900
C1404       C  0.57677861  0.93473509  0.25828891    -0.00100
C1405       C  0.59747507  0.93261194  0.24494457    -0.03700
C1406       C  0.60303259  0.90665812  0.22961062     0.03300
C1407       C  0.55320000  0.85915844  0.24298797     0.10100
C1408       C  0.54101783  0.91349834  0.27050301     0.36000
C1409       C  0.62422539  0.90346454  0.21630434     0.39400
C1410       C  0.55215332  0.84163037  0.26852034    -0.04100
C1411       C  0.53904922  0.81640910  0.26889614     0.03100
C1412       C  0.52703821  0.80824919  0.24354493    -0.03700
C1413       C  0.52880085  0.82529101  0.21764657     0.00100
C1414       C  0.54113787  0.85122964  0.21776504    -0.02500
C1415       C  0.56499329  0.84930351  0.29423621     0.36800
C1416       C  0.51983017  0.81478862  0.19001495     0.40400
C1417       C  0.53863552  0.79827496  0.29508537     0.39500
C1418       C  0.54162754  0.86970770  0.19181846     0.36400
C1419       C  0.59420369  0.85641681  0.21289593     0.37100
C1420       C  0.57020939  0.96137540  0.27319941     0.40400
N1421       N  0.53850809  0.78377569  0.31597086    -0.37700
N1422       N  0.57528026  0.85552650  0.31467144    -0.39300
N1423       N  0.51343422  0.80645466  0.16747742    -0.37000
N1424       N  0.54193465  0.88458333  0.17121265    -0.39400
N1425       N  0.52415179  0.91538462  0.28136193    -0.39200
N1426       N  0.56501313  0.98257065  0.28520852    -0.36800
N1427       N  0.64112229  0.90075972  0.20570413    -0.37900
N1428       N  0.59877485  0.83515590  0.20053460    -0.39500
C1429       C  0.78807315  0.80282507  0.34982405    -0.04500
C1430       C  0.79804626  0.80630273  0.37764155     0.09700
C1431       C  0.81891612  0.79493999  0.38228821    -0.01900
C1432       C  0.83012475  0.78118166  0.35895021    -0.00100
C1433       C  0.82045552  0.77841336  0.33069499    -0.03700
C1434       C  0.79916256  0.78879784  0.32645882     0.03300
C1435       C  0.78695902  0.82280005  0.40194245     0.10100
C1436       C  0.82902881  0.79792181  0.41108565     0.36000
C1437       C  0.78840149  0.78447275  0.29830294     0.39400
C1438       C  0.77123548  0.80901783  0.41964867    -0.04100
C1439       C  0.76206403  0.82395922  0.44393273     0.03100
C1440       C  0.76800050  0.85321320  0.45006703    -0.03700
C1441       C  0.78420505  0.86661842  0.43279027     0.00100
C1442       C  0.79330610  0.85169402  0.40848326    -0.02500
C1443       C  0.76479473  0.77924553  0.41312823     0.36800
C1444       C  0.79316979  0.89451877  0.44165901     0.40400
C1445       C  0.74739932  0.80864590  0.46353635     0.39500
C1446       C  0.80963089  0.86583638  0.39048798     0.36400
C1447       C  0.76647932  0.81410730  0.34523543     0.37100
C1448       C  0.85204251  0.77115658  0.36382982     0.40400
N1449       N  0.73593241  0.79629900  0.47939105    -0.37700
N1450       N  0.75957957  0.75554828  0.40778570    -0.39300
N1451       N  0.80104862  0.91636754  0.44870618    -0.37000
N1452       N  0.82267515  0.87706879  0.37613866    -0.39400
N1453       N  0.83711938  0.80036289  0.43402302    -0.39200
N1454       N  0.86952472  0.76317323  0.36768823    -0.36800
N1455       N  0.77973838  0.78090922  0.27590610    -0.37900
N1456       N  0.74923354  0.82312303  0.34176799    -0.39500
C1457       C  0.80522774  0.67070096  0.15968319    -0.04500
C1458       C  0.80086037  0.68814270  0.13479911     0.09700
C1459       C  0.80619397  0.71807423  0.13541747    -0.01900
C1460       C  0.81590022  0.73052366  0.16071662    -0.00100
C1461       C  0.82142902  0.71281668  0.18517005    -0.03700
C1462       C  0.81576358  0.68278326  0.18457780     0.03300
C1463       C  0.79117048  0.67484158  0.10752687     0.10100
C1464       C  0.80207647  0.73597983  0.10965450     0.36000
C1465       C  0.82146477  0.66379733  0.20894018     0.39400
C1466       C  0.76949811  0.68057361  0.09991748    -0.04100
C1467       C  0.76067401  0.66886797  0.07366547     0.03100
C1468       C  0.77319597  0.65039578  0.05540631    -0.03700
C1469       C  0.79522755  0.64599544  0.06224203     0.00100
C1470       C  0.80404099  0.65765889  0.08849720    -0.02500
C1471       C  0.75635673  0.69882996  0.11900438     0.36800
C1472       C  0.80904486  0.63020839  0.04181962     0.40400
C1473       C  0.73936690  0.67790220  0.06425228     0.39500
C1474       C  0.82643981  0.65211286  0.09591024     0.36400
C1475       C  0.79912463  0.64010754  0.15940207     0.37100
C1476       C  0.81954418  0.76179143  0.16174639     0.40400
N1477       N  0.72255495  0.68592323  0.05673137    -0.37700
N1478       N  0.74593944  0.71351804  0.13419319    -0.39300
N1479       N  0.82009486  0.61787450  0.02536570    -0.37000
N1480       N  0.84425228  0.64751664  0.10198900    -0.39400
N1481       N  0.79880294  0.75018911  0.08905875    -0.39200
N1482       N  0.82227475  0.78676337  0.16262159    -0.36800
N1483       N  0.82601246  0.64858439  0.22831207    -0.37900
N1484       N  0.79426758  0.61571609  0.15908470    -0.39500
C1485       C  0.20119031  0.67675485  0.35127934    -0.04500
C1486       C  0.20763594  0.69532757  0.37458079     0.09700
C1487       C  0.20304061  0.72540942  0.37309937    -0.01900
C1488       C  0.19164784  0.73676447  0.34869661    -0.00100
C1489       C  0.18366135  0.71781761  0.32637341    -0.03700
C1490       C  0.18868642  0.68766665  0.32777925     0.03300
C1491       C  0.21729700  0.68247556  0.40192073     0.10100
C1492       C  0.20946429  0.74453367  0.39718268     0.36000
C1493       C  0.17990970  0.66729743  0.30623928     0.39400
C1494       C  0.23950155  0.68558021  0.40817738    -0.04100
C1495       C  0.24831458  0.67298525  0.43393278     0.03100
C1496       C  0.23519845  0.65592515  0.45276825    -0.03700
C1497       C  0.21279655  0.65363324  0.44684243     0.00100
C1498       C  0.20391533  0.66700005  0.42167459    -0.02500
C1499       C  0.25318867  0.70212155  0.38831589     0.36800
C1500       C  0.19868817  0.63797028  0.46696593     0.40400
C1501       C  0.27037137  0.67966599  0.44220050     0.39500
C1502       C  0.18083131  0.66536835  0.41630709     0.36400
C1503       C  0.20704007  0.64611496  0.35199116     0.37100
C1504       C  0.18853145  0.76803328  0.34646473     0.40400
N1505       N  0.28785338  0.68581386  0.44877501    -0.37700
N1506       N  0.26409687  0.71542451  0.37252828    -0.39300
N1507       N  0.18740970  0.62554829  0.48300948    -0.37000
N1508       N  0.16243938  0.66423675  0.41193682    -0.39400
N1509       N  0.21454748  0.75975795  0.41644425    -0.39200
N1510       N  0.18620137  0.79300027  0.34461716    -0.36800
N1511       N  0.17277743  0.65095542  0.28926527    -0.37900
N1512       N  0.21182408  0.62174073  0.35263967    -0.39500
C1513       C  0.04130732  0.90131777  0.27942377    -0.04500
C1514       C  0.05170251  0.89352203  0.25280884     0.09700
C1515       C  0.04884456  0.91065661  0.22734397    -0.01900
C1516       C  0.03625898  0.93615635  0.22877030    -0.00100
C1517       C  0.02517430  0.94348172  0.25510316    -0.03700
C1518       C  0.02800202  0.92618929  0.28057990     0.03300
C1519       C  0.06701867  0.86848193  0.25235987     0.10100
C1520       C  0.05909207  0.90216486  0.19979475     0.36000
C1521       C  0.01868362  0.93508853  0.30857966     0.39400
C1522       C  0.05963223  0.84021388  0.24539857    -0.04100
C1523       C  0.07403958  0.81645417  0.24614519     0.03100
C1524       C  0.09576784  0.82076817  0.25501154    -0.03700
C1525       C  0.10307785  0.84925371  0.26187017     0.00100
C1526       C  0.08886273  0.87308720  0.25978664    -0.02500
C1527       C  0.03718112  0.83572808  0.23739738     0.36800
C1528       C  0.12536587  0.85430666  0.27033757     0.40400
C1529       C  0.06629314  0.78758325  0.23819598     0.39500
C1530       C  0.09676753  0.90253883  0.26465216     0.36400
C1531       C  0.04487741  0.88411150  0.30582411     0.37100
C1532       C  0.03576885  0.95574938  0.20368196     0.40400
N1533       N  0.06004020  0.76467877  0.23151877    -0.37700
N1534       N  0.01926182  0.83228135  0.23101314    -0.39300
N1535       N  0.14308657  0.85840133  0.27733409    -0.37000
N1536       N  0.10308360  0.92607982  0.26812940    -0.39400
N1537       N  0.06711350  0.89523208  0.17775134    -0.39200
N1538       N  0.03562794  0.97162292  0.18385287    -0.36800
N1539       N  0.01175291  0.94192654  0.33133109    -0.37900
N1540       N  0.04786609  0.87037837  0.32683149    -0.39500
C1541       C  0.08571365  0.62444742  0.24338338    -0.04500
C1542       C  0.06498011  0.62832513  0.25568157     0.09700
C1543       C  0.05923233  0.65545918  0.26799964    -0.01900
C1544       C  0.07415985  0.67878414  0.26797667    -0.00100
C1545       C  0.09508208  0.67502697  0.25565663    -0.03700
C1546       C  0.10080711  0.64751725  0.24369302     0.03300
C1547       C  0.04950573  0.60327157  0.25620945     0.10100
C1548       C  0.03785990  0.65928239  0.28059230     0.36000
C1549       C  0.12257754  0.64227396  0.23309238     0.39400
C1550       C  0.04825635  0.58533075  0.28139252    -0.04100
C1551       C  0.03614986  0.55927906  0.28047249     0.03100
C1552       C  0.02458656  0.55151638  0.25462654    -0.03700
C1553       C  0.02595760  0.56951893  0.22940777     0.00100
C1554       C  0.03789069  0.59571632  0.23049915    -0.02500
C1555       C  0.05974183  0.59353588  0.30811580     0.36800
C1556       C  0.01711236  0.55970797  0.20142627     0.40400
C1557       C  0.03662820  0.53969872  0.30557955     0.39500
C1558       C  0.03858732  0.61476464  0.20499060     0.36400
C1559       C  0.09152590  0.59647001  0.23055365     0.37100
C1560       C  0.06769281  0.70667139  0.28035442     0.40400
N1561       N  0.03725642  0.52392615  0.32547381    -0.37700
N1562       N  0.06876974  0.60024592  0.32949061    -0.39300
N1563       N  0.01072651  0.55188891  0.17869536    -0.37000
N1564       N  0.03906211  0.63011533  0.18475453    -0.39400
N1565       N  0.02080721  0.66219060  0.29064601    -0.39200
N1566       N  0.06243688  0.72878395  0.29044609    -0.36800
N1567       N  0.13997111  0.63792707  0.22483798    -0.37900
N1568       N  0.09601089  0.57416326  0.22020606    -0.39500
C1569       C  0.94932627  0.58161854  0.23074612    -0.04500
C1570       C  0.94775459  0.59758840  0.25737029     0.09700
C1571       C  0.95974000  0.58892597  0.28227407    -0.01900
C1572       C  0.97327768  0.56434762  0.28062417    -0.00100
C1573       C  0.97579157  0.54919287  0.25357666    -0.03700
C1574       C  0.96323505  0.55739751  0.22885806     0.03300
C1575       C  0.93334719  0.62357307  0.25930249     0.10100
C1576       C  0.95783386  0.60515140  0.30975435     0.36000
C1577       C  0.96389124  0.54018584  0.20187407     0.39400
C1578       C  0.91240291  0.62095490  0.27119975    -0.04100
C1579       C  0.89882410  0.64555825  0.27300354     0.03100
C1580       C  0.90605252  0.67302237  0.26251509    -0.03700
C1581       C  0.92734579  0.67552756  0.25110711     0.00100
C1582       C  0.94087770  0.65087794  0.24959145    -0.02500
C1583       C  0.90473934  0.59273265  0.28120556     0.36800
C1584       C  0.93572043  0.70344357  0.24133539     0.40400
C1585       C  0.87716495  0.64211723  0.28476607     0.39500
C1586       C  0.96268895  0.65344103  0.23805488     0.36400
C1587       C  0.93631446  0.58987493  0.20548735     0.37100
C1588       C  0.98291245  0.55317833  0.30745551     0.40400
N1589       N  0.85992224  0.63935182  0.29425012    -0.37700
N1590       N  0.89860863  0.57023309  0.28917752    -0.39300
N1591       N  0.94268198  0.72547963  0.23330744    -0.37000
N1592       N  0.98009958  0.65518980  0.22890830    -0.39400
N1593       N  0.95627230  0.61817077  0.33162306    -0.39200
N1594       N  0.98992559  0.54425242  0.32931307    -0.36800
N1595       N  0.96424416  0.52630401  0.18044316    -0.37900
N1596       N  0.92589249  0.59643221  0.18536619    -0.39500
C1597       C  0.94108550  0.84073054  0.26277258    -0.04500
C1598       C  0.93440914  0.86780520  0.25147374     0.09700
C1599       C  0.91309903  0.87132483  0.24115138    -0.01900
C1600       C  0.89838127  0.84784260  0.24236530    -0.00100
C1601       C  0.90502189  0.82051980  0.25359228    -0.03700
C1602       C  0.92647884  0.81716383  0.26392781     0.03300
C1603       C  0.94938024  0.89332208  0.25250882     0.10100
C1604       C  0.90620392  0.89944947  0.23004207     0.36000
C1605       C  0.93368289  0.78956088  0.27594424     0.39400
C1606       C  0.96078358  0.90194872  0.22701883    -0.04100
C1607       C  0.97398502  0.92704133  0.22779144     0.03100
C1608       C  0.97645168  0.94297436  0.25440916    -0.03700
C1609       C  0.96464851  0.93452606  0.27975556     0.00100
C1610       C  0.95133994  0.90961811  0.27886185    -0.02500
C1611       C  0.95845603  0.88535696  0.19981726     0.36800
C1612       C  0.96523408  0.95235364  0.30632602     0.40400
C1613       C  0.98331033  0.93777946  0.20054015     0.39500
C1614       C  0.93915934  0.90106403  0.30485346     0.36400
C1615       C  0.96296532  0.83737666  0.27370323     0.37100
C1616       C  0.87606602  0.85249616  0.23388355     0.40400
N1617       N  0.99008220  0.94617534  0.17829087    -0.37700
N1618       N  0.95656988  0.87214159  0.17811002    -0.39300
N1619       N  0.96546544  0.96670987  0.32743449    -0.37000
N1620       N  0.92939924  0.89410150  0.32548985    -0.39400
N1621       N  0.90078036  0.92191299  0.22118688    -0.39200
N1622       N  0.85822934  0.85633420  0.22738585    -0.36800
N1623       N  0.93945484  0.76771825  0.28589748    -0.37900
N1624       N  0.98038749  0.83483215  0.28253562    -0.39500
C1625       C  0.20070807  0.82233275  0.16163668    -0.04500
C1626       C  0.20696537  0.80422098  0.13793823     0.09700
C1627       C  0.20312563  0.77393996  0.13944202    -0.01900
C1628       C  0.19208826  0.76200040  0.16393305    -0.00100
C1629       C  0.18405091  0.78045573  0.18664138    -0.03700
C1630       C  0.18905699  0.81071227  0.18567893     0.03300
C1631       C  0.21590786  0.81769821  0.11043112     0.10100
C1632       C  0.21012636  0.75515102  0.11541892     0.36000
C1633       C  0.18157860  0.83048317  0.20858321     0.39400
C1634       C  0.23821862  0.81686509  0.10424819    -0.04100
C1635       C  0.24641485  0.83038151  0.07857511     0.03100
C1636       C  0.23252515  0.84636783  0.05990089    -0.03700
C1637       C  0.21006120  0.84658453  0.06587396     0.00100
C1638       C  0.20182774  0.83215008  0.09088799    -0.02500
C1639       C  0.25273954  0.80224119  0.12443605     0.36800
C1640       C  0.19528404  0.86159478  0.04623213     0.40400
C1641       C  0.26880654  0.82603835  0.07043637     0.39500
C1642       C  0.17876554  0.83217651  0.09665290     0.36400
C1643       C  0.20589477  0.85323820  0.16076225     0.37100
C1644       C  0.18953707  0.73060696  0.16596327     0.40400
N1645       N  0.28662069  0.82186691  0.06400581    -0.37700
N1646       N  0.26435781  0.79065181  0.14057770    -0.39300
N1647       N  0.18350580  0.87347099  0.03051905    -0.37000
N1648       N  0.16039513  0.83216414  0.10134404    -0.39400
N1649       N  0.21573234  0.74012978  0.09628591    -0.39200
N1650       N  0.18764892  0.70555029  0.16770653    -0.36800
N1651       N  0.17576974  0.84656817  0.22667682    -0.37900
N1652       N  0.21013248  0.87781779  0.15984975    -0.39500
C1653       C  0.30108395  0.92210756  0.16391135    -0.04500
C1654       C  0.29502670  0.93748250  0.13837524     0.09700
C1655       C  0.29982293  0.96749148  0.13618444    -0.01900
C1656       C  0.31107373  0.98199386  0.15914229    -0.00100
C1657       C  0.31804646  0.96642579  0.18441811    -0.03700
C1658       C  0.31251487  0.93637760  0.18682913     0.03300
C1659       C  0.28449270  0.92185797  0.11298876     0.10100
C1660       C  0.29348648  0.98329550  0.10985923     0.36000
C1661       C  0.31913738  0.91951860  0.21232598     0.39400
C1662       C  0.26190428  0.92283274  0.10921230    -0.04100
C1663       C  0.25229458  0.91085883  0.08354388     0.03100
C1664       C  0.26516659  0.89675392  0.06196486    -0.03700
C1665       C  0.28785922  0.89566315  0.06602734     0.00100
C1666       C  0.29737248  0.90770745  0.09163517    -0.02500
C1667       C  0.24860040  0.93650242  0.13170100     0.36800
C1668       C  0.30162670  0.88307146  0.04334092     0.40400
C1669       C  0.22948420  0.91543554  0.07831464     0.39500
C1670       C  0.32053059  0.90576493  0.09598713     0.36400
C1671       C  0.29592336  0.89129975  0.16621433     0.37100
C1672       C  0.31372737  0.51339471  0.15906983     0.40400
N1673       N  0.21132382  0.91980109  0.07437621    -0.37700
N1674       N  0.23798732  0.94726420  0.14974742    -0.39300
N1675       N  0.31259648  0.87335944  0.02507742    -0.37000
N1676       N  0.33897489  0.90402374  0.09961566    -0.39400
N1677       N  0.28820365  0.49662651  0.09024507    -0.39200
N1678       N  0.31589863  0.53844328  0.15784912    -0.36800
N1679       N  0.32430108  0.90598005  0.23265932    -0.37900
N1680       N  0.29183405  0.86672204  0.16795891    -0.39500
C1681       C  0.31468880  0.95653669  0.88393791    -0.04500
C1682       C  0.29447850  0.94335438  0.87860206     0.09700
C1683       C  0.28563781  0.94337653  0.84996343    -0.01900
C1684       C  0.29713246  0.95617796  0.82645577    -0.00100
C1685       C  0.31783274  0.96852940  0.83140367    -0.03700
C1686       C  0.32639727  0.96905871  0.86046048     0.03300
C1687       C  0.28288735  0.92855093  0.90322298     0.10100
C1688       C  0.26487460  0.92962787  0.84466123     0.36000
C1689       C  0.34768963  0.98107796  0.86622611     0.39400
C1690       C  0.26794854  0.94413581  0.92062259    -0.04100
C1691       C  0.25834332  0.93080554  0.94539809     0.03100
C1692       C  0.26353256  0.90166858  0.95269239    -0.03700
C1693       C  0.27921224  0.88661791  0.93583299     0.00100
C1694       C  0.28830396  0.89967983  0.91061456    -0.02500
C1695       C  0.26307878  0.97422492  0.91348728     0.36800
C1696       C  0.28802428  0.85929663  0.94626556     0.40400
C1697       C  0.24423226  0.94774441  0.96440549     0.39500
C1698       C  0.30388816  0.88384227  0.89277377     0.36400
C1699       C  0.32366947  0.95636704  0.91358461     0.37100
C1700       C  0.28740259  0.95693108  0.79728520     0.40400
N1701       N  0.23324861  0.96151208  0.97973184    -0.37700
N1702       N  0.25932350  0.99824854  0.90771592    -0.39300
N1703       N  0.29591859  0.83801339  0.95457537    -0.37000
N1704       N  0.31629707  0.87128297  0.87846571    -0.39400
N1705       N  0.24832842  0.91860160  0.84046692    -0.39200
N1706       N  0.27962094  0.95754533  0.77403775    -0.36800
N1707       N  0.36185411  0.49495244  0.86615066    -0.37900
N1708       N  0.33075774  0.95605161  0.93725084    -0.39500
C1709       C  0.31463696  0.54515601  0.62936204    -0.04500
C1710       C  0.29372610  0.55604123  0.63486003     0.09700
C1711       C  0.28400983  0.55134255  0.66260841    -0.01900
C1712       C  0.29541445  0.53669329  0.68514428    -0.00100
C1713       C  0.31697094  0.52731586  0.68039058    -0.03700
C1714       C  0.32634374  0.53121028  0.65203642    -0.02300
C1715       C  0.28228611  0.57307629  0.61138340     0.10100
C1716       C  0.26228894  0.56187211  0.66797363     0.36000
C1717       C  0.34837031  0.52210705  0.64625840     0.39400
C1718       C  0.26746861  0.55916323  0.59232947    -0.04100
C1719       C  0.25872820  0.57433690  0.56803434     0.03100
C1720       C  0.26460161  0.60375586  0.56269148    -0.03700
C1721       C  0.27931448  0.61769178  0.58210017     0.00100
C1722       C  0.28771831  0.60258726  0.60666992    -0.02500
C1723       C  0.26176051  0.52887891  0.59726934     0.36800
C1724       C  0.28760338  0.64648991  0.57546257     0.40400
C1725       C  0.24448297  0.55910715  0.54769711     0.39500
C1726       C  0.30256931  0.61711636  0.62673301     0.36400
C1727       C  0.32414676  0.54856645  0.60022963     0.37100
C1728       C  0.28463435  0.53064955  0.71294745     0.40400
N1729       N  0.23325218  0.54685476  0.53137556    -0.37700
N1730       N  0.25720568  0.50472668  0.60130081    -0.39300
N1731       N  0.29499614  0.66916772  0.57061385    -0.37000
N1732       N  0.31438417  0.62866300  0.64279910    -0.39400
N1733       N  0.24494787  0.57028522  0.67215376    -0.39200
N1734       N  0.27598468  0.52568266  0.73506078    -0.36800
N1735       N  0.36594336  0.51493826  0.64150558    -0.37900
N1736       N  0.33160626  0.55122870  0.57692414    -0.39500
C1737       C  0.44869380  0.83016075  0.72214077    -0.04500
C1738       C  0.44488439  0.84666820  0.74797496     0.09700
C1739       C  0.45462964  0.83845515  0.77484101    -0.01900
C1740       C  0.46823532  0.81387299  0.77588678    -0.00100
C1741       C  0.47224746  0.79743422  0.74998732    -0.03700
C1742       C  0.46185617  0.80515130  0.72331330     0.03300
C1743       C  0.42959972  0.87181437  0.74737571     0.10100
C1744       C  0.45007788  0.85490962  0.80158901     0.36000
C1745       C  0.46374935  0.78647117  0.69747527     0.39400
C1746       C  0.40779975  0.86767297  0.75545800    -0.04100
C1747       C  0.39355854  0.89160997  0.75643260     0.03100
C1748       C  0.40099047  0.91978026  0.74876846    -0.03700
C1749       C  0.42274778  0.92372566  0.74007565     0.00100
C1750       C  0.43704131  0.89984160  0.73966793    -0.02500
C1751       C  0.40018015  0.83876823  0.76330686     0.36800
C1752       C  0.43034935  0.95226374  0.73092479     0.40400
C1753       C  0.37159871  0.88741813  0.76683720     0.39500
C1754       C  0.45953119  0.90409975  0.73179052     0.36400
C1755       C  0.43870154  0.83865659  0.69450284     0.37100
C1756       C  0.47666725  0.80428363  0.80408293     0.40400
N1757       N  0.35413715  0.88406673  0.77532827    -0.37700
N1758       N  0.39417213  0.81568401  0.76957302    -0.39300
N1759       N  0.43631217  0.97504794  0.72355446    -0.37000
N1760       N  0.47750214  0.90745086  0.72562802    -0.39400
N1761       N  0.44628735  0.86802764  0.82287608    -0.39200
N1762       N  0.48292030  0.79673381  0.82689455    -0.36800
N1763       N  0.46509660  0.77140079  0.67696376    -0.37900
N1764       N  0.43080457  0.84554741  0.67243494    -0.39500
C1765       C  0.41045732  0.61866367  0.75086960    -0.04500
C1766       C  0.42927607  0.61625984  0.76831627     0.09700
C1767       C  0.43240019  0.59126039  0.78589592    -0.01900
C1768       C  0.41725647  0.56819300  0.78493453    -0.00100
C1769       C  0.39920777  0.56981435  0.76588020    -0.03700
C1770       C  0.39563526  0.59538655  0.74932339     0.03300
C1771       C  0.44596741  0.63987254  0.76687880     0.10100
C1772       C  0.45137365  0.58906706  0.80450984     0.36000
C1773       C  0.37648460  0.59798969  0.73104067     0.39400
C1774       C  0.44764205  0.66074328  0.78975121    -0.04100
C1775       C  0.46062145  0.68576323  0.78591170     0.03100
C1776       C  0.47231636  0.68984431  0.75931268    -0.03700
C1777       C  0.47061779  0.66884328  0.73650666     0.00100
C1778       C  0.45810996  0.64348860  0.74071087    -0.02500
C1779       C  0.43562373  0.65677259  0.81698010     0.36800
C1780       C  0.47972765  0.67458285  0.70759702     0.40400
C1781       C  0.46109871  0.70800566  0.80883529     0.39500
C1782       C  0.45716872  0.62136758  0.71768982     0.36400
C1783       C  0.40642441  0.64520353  0.73439323     0.37100
C1784       C  0.42072336  0.54231002  0.80263570     0.40400
N1785       N  0.46136249  0.72586945  0.82699120    -0.37700
N1786       N  0.42621031  0.65345157  0.83882672    -0.39300
N1787       N  0.48629431  0.67893945  0.68406757    -0.37000
N1788       N  0.45642653  0.60365575  0.69940954    -0.39400
N1789       N  0.46643951  0.58737387  0.81952082    -0.39200
N1790       N  0.42338754  0.52165477  0.81678441    -0.36800
N1791       N  0.36120461  0.60007265  0.71649121    -0.37900
N1792       N  0.40330332  0.66642895  0.72133236    -0.39500
C1793       C  0.72663794  0.55591678  0.91938629    -0.04500
C1794       C  0.71270497  0.57244234  0.90142109     0.09700
C1795       C  0.70975896  0.60236169  0.90758954    -0.01900
C1796       C  0.72057438  0.61568198  0.93165782    -0.00100
C1797       C  0.73516635  0.59945833  0.94911573    -0.03700
C1798       C  0.73783240  0.56929694  0.94305941     0.03300
C1799       C  0.70048228  0.55808537  0.87659741     0.10100
C1800       C  0.69499798  0.61920090  0.88960412     0.36000
C1801       C  0.75164701  0.55170861  0.96173395     0.39400
C1802       C  0.68063788  0.54398764  0.88218051    -0.04100
C1803       C  0.66881353  0.53112547  0.85877410     0.03100
C1804       C  0.67708197  0.53135820  0.82949076    -0.03700
C1805       C  0.69721243  0.54523446  0.82412372     0.00100
C1806       C  0.70863385  0.55886090  0.84749707    -0.02500
C1807       C  0.67227602  0.54300353  0.91213550     0.36800
C1808       C  0.70662234  0.54491978  0.79474694     0.40400
C1809       C  0.64764277  0.51890552  0.86486395     0.39500
C1810       C  0.72881540  0.57391410  0.84167774     0.36400
C1811       C  0.72900200  0.52489442  0.91389915     0.37100
C1812       C  0.71514452  0.64534079  0.93986937     0.40400
N1813       N  0.62641523  0.01896116  0.86570974    -0.37700
N1814       N  0.66565168  0.54211140  0.93604829    -0.39300
N1815       N  0.71422625  0.54463247  0.77136250    -0.37000
N1816       N  0.74485291  0.58611923  0.83716450    -0.39400
N1817       N  0.68320310  0.63253167  0.87517934    -0.39200
N1818       N  0.71023681  0.66884215  0.94636362    -0.36800
N1819       N  0.76259751  0.53767241  0.97671313    -0.37900
N1820       N  0.73074359  0.50010711  0.90962071    -0.39500
C1821       C  0.70162108  0.92776514  0.65885307    -0.04500
C1822       C  0.70163553  0.94438932  0.63274766     0.09700
C1823       C  0.69137215  0.97171955  0.63226158    -0.01900
C1824       C  0.68035733  0.98201851  0.65746467    -0.00100
C1825       C  0.67882100  0.96450387  0.68319368    -0.03700
C1826       C  0.69019086  0.93761239  0.68400618     0.03300
C1827       C  0.71196024  0.93271778  0.60533686     0.10100
C1828       C  0.69202962  0.98915303  0.60556905     0.36000
C1829       C  0.68997410  0.91955572  0.71026750     0.39400
C1830       C  0.69941460  0.91714196  0.58458830    -0.04100
C1831       C  0.70916291  0.90539571  0.55905060     0.03100
C1832       C  0.73152705  0.90948816  0.55398546    -0.03700
C1833       C  0.74350947  0.92749850  0.57337682     0.00100
C1834       C  0.73395694  0.93817598  0.59955214    -0.02500
C1835       C  0.67639434  0.91359497  0.58942751     0.36800
C1836       C  0.76491993  0.93729810  0.56513565     0.40400
C1837       C  0.69608168  0.88938528  0.53784026     0.39500
C1838       C  0.74663088  0.95511696  0.62042064     0.36400
C1839       C  0.71325859  0.90031873  0.65955473     0.37100
C1840       C  0.66959453  0.51459442  0.65400614     0.40400
N1841       N  0.68563819  0.87671743  0.52087301    -0.37700
N1842       N  0.65800867  0.91106311  0.59325239    -0.39300
N1843       N  0.78174223  0.94610714  0.55845296    -0.37000
N1844       N  0.75671289  0.96854394  0.63719197    -0.39400
N1845       N  0.69252928  0.00299648  0.58424426    -0.39200
N1846       N  0.66196303  0.53757693  0.65278137    -0.36800
N1847       N  0.69007386  0.90500580  0.73112135    -0.37900
N1848       N  0.72266622  0.87854283  0.65994860    -0.39500
C1849       C  0.58219710  0.61584929  0.77205507    -0.04500
C1850       C  0.56230876  0.61372617  0.75691745     0.09700
C1851       C  0.55698465  0.58775775  0.74163424    -0.01900
C1852       C  0.57176670  0.56438633  0.74071968    -0.00100
C1853       C  0.59166478  0.56661341  0.75577088    -0.03700
C1854       C  0.59667205  0.59218339  0.77186712     0.03300
C1855       C  0.54744738  0.63940734  0.75597465     0.10100
C1856       C  0.53619253  0.58510936  0.72710123     0.36000
C1857       C  0.61694059  0.59429811  0.78784018     0.39400
C1858       C  0.54611415  0.65629727  0.73003766    -0.04100
C1859       C  0.53287190  0.68121284  0.72930125     0.03100
C1860       C  0.52105387  0.68971405  0.75466912    -0.03700
C1861       C  0.52311751  0.67347335  0.78099776     0.00100
C1862       C  0.53571858  0.64788345  0.78136051    -0.02500
C1863       C  0.55894183  0.64848803  0.70435259     0.36800
C1864       C  0.51390535  0.68431676  0.80836296     0.40400
C1865       C  0.53190736  0.69860166  0.70259493     0.39500
C1866       C  0.53700189  0.63054191  0.80805384     0.36400
C1867       C  0.58789440  0.64259399  0.78746949     0.37100
C1868       C  0.56627945  0.53776373  0.72497213     0.40400
N1869       N  0.53112042  0.71247044  0.68130178    -0.37700
N1870       N  0.56923248  0.64222734  0.68393482    -0.39300
N1871       N  0.50714464  0.69293097  0.83059131    -0.37000
N1872       N  0.53806654  0.61671724  0.82935089    -0.39400
N1873       N  0.51956399  0.58313477  0.71559735    -0.39200
N1874       N  0.56188813  0.51650017  0.71244739    -0.36800
N1875       N  0.63308887  0.59584014  0.80062077    -0.37900
N1876       N  0.59237051  0.66392882  0.79980831    -0.39500
C1877       C  0.58599795  0.86736713  0.75176229    -0.04500
C1878       C  0.56457875  0.87136760  0.76165324     0.09700
C1879       C  0.55811808  0.89870130  0.77296576    -0.01900
C1880       C  0.57291734  0.92213186  0.77383794    -0.00100
C1881       C  0.59424211  0.91827020  0.76347017    -0.03700
C1882       C  0.60079628  0.89077860  0.75262180     0.03300
C1883       C  0.54880665  0.84669405  0.75975673     0.10100
C1884       C  0.53616189  0.90272449  0.78333921     0.36000
C1885       C  0.62245381  0.88694972  0.74104001     0.39400
C1886       C  0.54614678  0.82772161  0.78390430    -0.04100
C1887       C  0.53233935  0.80335687  0.78150565     0.03100
C1888       C  0.52118092  0.79760943  0.75477408    -0.03700
C1889       C  0.52439212  0.81622827  0.73031997     0.00100
C1890       C  0.53770597  0.84112536  0.73309556    -0.02500
C1891       C  0.55827493  0.83274106  0.81087906     0.36800
C1892       C  0.51585457  0.80847529  0.70153686     0.40400
C1893       C  0.53043759  0.78336461  0.80617796     0.39500
C1894       C  0.54060388  0.86062445  0.70821352     0.36400
C1895       C  0.59264496  0.83920925  0.74023629     0.37100
C1896       C  0.56629115  0.95020599  0.78560614     0.40400
N1897       N  0.52902151  0.76722097  0.82569155    -0.37700
N1898       N  0.56805552  0.83665197  0.83232900    -0.39300
N1899       N  0.50977825  0.80255669  0.67807730    -0.37000
N1900       N  0.54295533  0.87626330  0.68844592    -0.39400
N1901       N  0.51863057  0.90588296  0.79160121    -0.39200
N1902       N  0.56110306  0.97261907  0.79505290    -0.36800
N1903       N  0.63968275  0.88390318  0.73162748    -0.37900
N1904       N  0.59785990  0.81671777  0.73101909    -0.39500
C1905       C  0.78850887  0.69633278  0.84412277    -0.04500
C1906       C  0.79876135  0.69154873  0.87145289     0.09700
C1907       C  0.81980812  0.70231741  0.87630117    -0.01900
C1908       C  0.83081830  0.71732858  0.85368935    -0.00100
C1909       C  0.82080544  0.72160843  0.82588592    -0.03700
C1910       C  0.79932926  0.71171729  0.82156266     0.03300
C1911       C  0.78718249  0.67621483  0.89588224     0.10100
C1912       C  0.83023272  0.69744319  0.90458373     0.36000
C1913       C  0.78798898  0.71829114  0.79433294     0.39400
C1914       C  0.79076568  0.64628705  0.90091220    -0.04100
C1915       C  0.78190602  0.63264722  0.92609998     0.03100
C1916       C  0.76892341  0.64874200  0.94604245    -0.03700
C1917       C  0.76560266  0.67892214  0.94098180     0.00100
C1918       C  0.77451734  0.69244862  0.91586165    -0.02500
C1919       C  0.80462829  0.62999642  0.88096970     0.36800
C1920       C  0.75419843  0.69663070  0.96259287     0.40400
C1921       C  0.78819924  0.60304157  0.93301514     0.39500
C1922       C  0.77166270  0.72351925  0.91129504     0.36400
C1923       C  0.76691809  0.68502011  0.83913851     0.37100
C1924       C  0.85267582  0.72751802  0.85902015     0.40400
N1925       N  0.79385381  0.57962074  0.93836518    -0.37700
N1926       N  0.81581740  0.61712004  0.86513656    -0.39300
N1927       N  0.74542434  0.71086526  0.98002627    -0.37000
N1928       N  0.76955117  0.74831311  0.90762320    -0.39400
N1929       N  0.83845578  0.69336005  0.92715337    -0.39200
N1930       N  0.87007284  0.73568741  0.86347858    -0.36800
N1931       N  0.77890348  0.72375722  0.77270634    -0.37900
N1932       N  0.74974862  0.67583051  0.83508622    -0.39500
C1933       C  0.80785690  0.79521188  0.62810447    -0.04500
C1934       C  0.79715176  0.82176056  0.63385561     0.09700
C1935       C  0.79723720  0.83347596  0.66265559    -0.01900
C1936       C  0.80843067  0.81914818  0.68556614    -0.00100
C1937       C  0.81982180  0.79280020  0.67982398    -0.03700
C1938       C  0.81907521  0.78071613  0.65091167     0.03300
C1939       C  0.78615008  0.83762993  0.60922208     0.10100
C1940       C  0.78595704  0.86060107  0.66855792     0.36000
C1941       C  0.82916850  0.75285952  0.64459969     0.39400
C1942       C  0.76380928  0.83399169  0.60433451    -0.04100
C1943       C  0.75398314  0.84621166  0.57908260     0.03100
C1944       C  0.76635892  0.86303401  0.55909878    -0.03700
C1945       C  0.78856463  0.86773604  0.56489594     0.00100
C1946       C  0.79838631  0.85506130  0.58980254    -0.02500
C1947       C  0.75110295  0.81689839  0.62493095     0.36800
C1948       C  0.80154645  0.88484851  0.54458186     0.40400
C1949       C  0.73158633  0.83952725  0.57275212     0.39500
C1950       C  0.82127372  0.85932512  0.59510992     0.36400
C1951       C  0.80723796  0.78282422  0.59852831     0.37100
C1952       C  0.80846379  0.83221477  0.71483992     0.40400
N1953       N  0.71374140  0.83357023  0.56810339    -0.37700
N1954       N  0.74099336  0.80338660  0.64150726    -0.39300
N1955       N  0.81182650  0.89846813  0.52828812    -0.37000
N1956       N  0.83954396  0.86266052  0.59930278    -0.39400
N1957       N  0.77692204  0.88220485  0.67321320    -0.39200
N1958       N  0.80828058  0.84266393  0.73817957    -0.36800
N1959       N  0.83709750  0.73057912  0.63942704    -0.37900
N1960       N  0.80667903  0.77308825  0.57488854    -0.39500
C1961       C  0.20531185  0.81882731  0.84570797    -0.04500
C1962       C  0.19820295  0.81512310  0.87502370     0.09700
C1963       C  0.18007385  0.79742920  0.88093008    -0.01900
C1964       C  0.16890055  0.78364661  0.85756729    -0.00100
C1965       C  0.17594830  0.78725016  0.82798143    -0.03700
C1966       C  0.19430397  0.80493692  0.82223513     0.03300
C1967       C  0.21019696  0.82904088  0.90004377     0.10100
C1968       C  0.17290560  0.79351730  0.91121878     0.36000
C1969       C  0.20229663  0.80845191  0.79228303     0.39400
C1970       C  0.20394955  0.85664484  0.91085462    -0.04100
C1971       C  0.21403621  0.86850943  0.93618343     0.03100
C1972       C  0.23059176  0.85290036  0.95067609    -0.03700
C1973       C  0.23643087  0.82493056  0.94006828     0.00100
C1974       C  0.22666367  0.81343262  0.91441255    -0.02500
C1975       C  0.18656556  0.87228518  0.89647692     0.36800
C1976       C  0.25143723  0.80705241  0.95654920     0.40400
C1977       C  0.20590829  0.89543202  0.94881839     0.39500
C1978       C  0.23309137  0.78508321  0.90313017     0.36400
C1979       C  0.22412708  0.83678522  0.83981233     0.37100
C1980       C  0.14962216  0.76680857  0.86412284     0.40400
N1981       N  0.19888947  0.91662934  0.95888197    -0.37700
N1982       N  0.17264941  0.88467511  0.88502448    -0.39300
N1983       N  0.26311648  0.79242023  0.96980665    -0.37000
N1984       N  0.23817847  0.76252359  0.89395515    -0.39400
N1985       N  0.16725644  0.79041133  0.93539984    -0.39200
N1986       N  0.13422747  0.75345421  0.86943292    -0.36800
N1987       N  0.20870450  0.81133677  0.76842337    -0.37900
N1988       N  0.23917716  0.85104235  0.83513888    -0.39500
C1989       C  0.21094356  0.70002251  0.66423537    -0.04500
C1990       C  0.20124834  0.69619580  0.63628332     0.09700
C1991       C  0.17969308  0.70509710  0.63189271    -0.01900
C1992       C  0.16770891  0.71710785  0.65545957    -0.00100
C1993       C  0.17737974  0.72119711  0.68358368    -0.03700
C1994       C  0.19918815  0.71278515  0.68771714     0.03300
C1995       C  0.21333135  0.68168023  0.61159096     0.10100
C1996       C  0.16961448  0.70112981  0.60316946     0.36000
C1997       C  0.20975580  0.71749442  0.71595725     0.39400
C1998       C  0.20761291  0.65314759  0.60269881    -0.04100
C1999       C  0.21730197  0.64039246  0.57759764     0.03100
C2000       C  0.23364924  0.65543883  0.56204908    -0.03700
C2001       C  0.23918788  0.68419867  0.57078362     0.00100
C2002       C  0.22931238  0.69706985  0.59573789    -0.02500
C2003       C  0.19124258  0.63721716  0.61902487     0.36800
C2004       C  0.25419579  0.70119746  0.55317914     0.40400
C2005       C  0.20871541  0.61321327  0.56607957     0.39500
C2006       C  0.23527860  0.72639981  0.60477317     0.36400
C2007       C  0.23289913  0.69010930  0.66893856     0.37100
C2008       C  0.14501567  0.72360389  0.65096475     0.40400
N2009       N  0.20114268  0.59194186  0.55689487    -0.37700
N2010       N  0.17811485  0.62467440  0.63205864    -0.39300
N2011       N  0.26603373  0.71484550  0.53901632    -0.37000
N2012       N  0.24018088  0.74970502  0.61210918    -0.39400
N2013       N  0.16151406  0.69773182  0.58035774    -0.39200
N2014       N  0.12689604  0.72859923  0.64740469    -0.36800
N2015       N  0.21826461  0.72120366  0.73844286    -0.37900
N2016       N  0.25040304  0.68209781  0.67252842    -0.39500
C2017       C  0.04670243  0.91821215  0.72896073    -0.04500
C2018       C  0.05014650  0.90045663  0.75383899     0.09700
C2019       C  0.04062542  0.90784735  0.78119288    -0.01900
C2020       C  0.02765181  0.93297116  0.78366941    -0.00100
C2021       C  0.02352643  0.95020907  0.75851343    -0.03700
C2022       C  0.03359946  0.94315923  0.73132683     0.03300
C2023       C  0.06501626  0.87498475  0.75171126     0.10100
C2024       C  0.04478066  0.88999879  0.80696875     0.36000
C2025       C  0.03134957  0.96235941  0.70609894     0.39400
C2026       C  0.08709346  0.87852890  0.75849884    -0.04100
C2027       C  0.10117521  0.85447009  0.75692319     0.03100
C2028       C  0.09309466  0.82660783  0.74911111    -0.03700
C2029       C  0.07096461  0.82313422  0.74236294     0.00100
C2030       C  0.05703256  0.84738677  0.74320445    -0.02500
C2031       C  0.09516264  0.90692164  0.76760957     0.36800
C2032       C  0.06257225  0.79462095  0.73430582     0.40400
C2033       C  0.12374517  0.85818969  0.76474054     0.39500
C2034       C  0.03446393  0.84404559  0.73533210     0.36400
C2035       C  0.05717059  0.91118135  0.70113485     0.37100
C2036       C  0.02025980  0.94237371  0.81255959     0.40400
N2037       N  0.14172197  0.86123333  0.77104500    -0.37700
N2038       N  0.10145958  0.92959693  0.77498774    -0.39300
N2039       N  0.05596490  0.77179179  0.72801782    -0.37000
N2040       N  0.01647742  0.84147344  0.72889473    -0.39400
N2041       N  0.04817643  0.87573290  0.82748627    -0.39200
N2042       N  0.01501064  0.94981043  0.83595685    -0.36800
N2043       N  0.02971195  0.97777389  0.68603314    -0.37900
N2044       N  0.06558423  0.90559447  0.67897682    -0.39500
C2045       C  0.08466577  0.62642387  0.75313843    -0.04500
C2046       C  0.06397721  0.63006623  0.76570956     0.09700
C2047       C  0.05824107  0.65708196  0.77840470    -0.01900
C2048       C  0.07277839  0.68082037  0.77736892    -0.00100
C2049       C  0.09321516  0.67752554  0.76382673    -0.03700
C2050       C  0.09916438  0.65016441  0.75188281     0.03300
C2051       C  0.04798582  0.60560596  0.76443444     0.10100
C2052       C  0.03733630  0.66030779  0.79248587     0.36000
C2053       C  0.12032526  0.64630940  0.73865242     0.39400
C2054       C  0.04650061  0.58554840  0.78784880    -0.04100
C2055       C  0.03292316  0.56094858  0.78529597     0.03100
C2056       C  0.02051383  0.55640887  0.75935372    -0.03700
C2057       C  0.02207900  0.57658316  0.73593006     0.00100
C2058       C  0.03529089  0.60152624  0.73885597    -0.02500
C2059       C  0.05912537  0.59016740  0.81445958     0.36800
C2060       C  0.01171354  0.57057699  0.70784916     0.40400
C2061       C  0.03229326  0.53974203  0.80903611     0.39500
C2062       C  0.03601666  0.62299633  0.71541159     0.36400
C2063       C  0.09107614  0.59805630  0.74186745     0.37100
C2064       C  0.06627359  0.70900978  0.78893179     0.40400
N2065       N  0.03181090  0.52273059  0.82786221    -0.37700
N2066       N  0.06911873  0.59395483  0.83574820    -0.39300
N2067       N  0.00397998  0.56600735  0.68501009    -0.37000
N2068       N  0.03645885  0.64029566  0.69686274    -0.39400
N2069       N  0.02068675  0.66261179  0.80387618    -0.39200
N2070       N  0.06103371  0.73155109  0.79799449    -0.36800
N2071       N  0.13719740  0.64323192  0.72808667    -0.37900
N2072       N  0.09619361  0.57532863  0.73315424    -0.39500
C2073       C  0.94686762  0.58705229  0.72679149    -0.04500
C2074       C  0.94528429  0.60622284  0.75112991     0.09700
C2075       C  0.95693386  0.60020311  0.77720315    -0.01900
C2076       C  0.96971772  0.57476288  0.77916367    -0.00100
C2077       C  0.97137829  0.55552134  0.75473513    -0.03700
C2078       C  0.95946465  0.56154435  0.72875477     0.03300
C2079       C  0.93026004  0.63180169  0.74973308     0.10100
C2080       C  0.95556017  0.62012515  0.80212175     0.36000
C2081       C  0.95982509  0.54118594  0.70410405     0.39400
C2082       C  0.90808853  0.62798476  0.75600105    -0.04100
C2083       C  0.89369947  0.65174897  0.75394281     0.03100
C2084       C  0.90144732  0.67964987  0.74592372    -0.03700
C2085       C  0.92363587  0.68336076  0.73940044     0.00100
C2086       C  0.93795917  0.65950301  0.74122823    -0.02500
C2087       C  0.90017208  0.59956270  0.76497363     0.36800
C2088       C  0.93163848  0.71161248  0.72999716     0.40400
C2089       C  0.87107096  0.64766094  0.76119232     0.39500
C2090       C  0.96064214  0.66335361  0.73425115     0.36400
C2091       C  0.93554298  0.59378165  0.69961142     0.37100
C2092       C  0.97983351  0.56749077  0.80702998     0.40400
N2093       N  0.85302158  0.64438952  0.76697464    -0.37700
N2094       N  0.89392663  0.57686628  0.77217650    -0.39300
N2095       N  0.93792270  0.73416589  0.72240058    -0.37000
N2096       N  0.97874776  0.66638248  0.72868290    -0.39400
N2097       N  0.95455228  0.63610594  0.82194868    -0.39200
N2098       N  0.98745880  0.56191749  0.82965330    -0.36800
N2099       N  0.96005375  0.52486448  0.68451577    -0.37900
N2100       N  0.92659093  0.59939096  0.67792614    -0.39500
C2101       C  0.95792318  0.90653860  0.74106173    -0.04500
C2102       C  0.94829130  0.89931183  0.76832727     0.09700
C2103       C  0.95243844  0.91653414  0.79356539    -0.01900
C2104       C  0.96526587  0.94184221  0.79119309    -0.00100
C2105       C  0.97494061  0.94917857  0.76386857    -0.03700
C2106       C  0.97105894  0.93155175  0.73874185     0.03300
C2107       C  0.93209564  0.87520741  0.76959425     0.10100
C2108       C  0.94321898  0.90836292  0.82183829     0.36000
C2109       C  0.97900498  0.94028592  0.70997233     0.39400
C2110       C  0.93832302  0.84697498  0.77823740    -0.04100
C2111       C  0.92332983  0.82381586  0.77686526     0.03100
C2112       C  0.90195697  0.82894364  0.76721126    -0.03700
C2113       C  0.89548945  0.85755071  0.75996207     0.00100
C2114       C  0.91061314  0.88054180  0.76078542    -0.02500
C2115       C  0.96028047  0.84176517  0.78796729     0.36800
C2116       C  0.87357549  0.86319650  0.75029663     0.40400
C2117       C  0.92982975  0.79475663  0.78573185     0.39500
C2118       C  0.90432939  0.90958455  0.75153947     0.36400
C2119       C  0.95375849  0.88854949  0.71520118     0.37100
C2120       C  0.96746241  0.96122808  0.81645365     0.40400
N2121       N  0.93498137  0.77158035  0.79285785    -0.37700
N2122       N  0.97780397  0.83773559  0.79578799    -0.39300
N2123       N  0.85611642  0.86789606  0.74261465    -0.37000
N2124       N  0.89944869  0.93272071  0.74394604    -0.39400
N2125       N  0.93602752  0.90161949  0.84443042    -0.39200
N2126       N  0.96900476  0.97685252  0.83651359    -0.36800
N2127       N  0.98478084  0.94697357  0.68662703    -0.37900
N2128       N  0.95037199  0.87413428  0.69464876    -0.39500
loop_ 
_geom_bond_atom_site_label_1 
_geom_bond_atom_site_label_2 
_geom_bond_distance 
_geom_bond_site_symmetry_2 
_ccdc_geom_bond_type 
C1            C2   1.415   1_655  A
C1            C6   1.407       .  A
C1         C1041   1.494       .  S
C2         C1067   1.400       .  A
C2          C957   1.492       .  S
C3            C4   1.400       .  A
C3         C1066   1.400   1_545  A
C3            H8   1.081       .  S
C4            C5   1.414   1_455  A
C4          C992   1.486       .  S
C5         C1070   1.402       .  A
C5         C1013   1.490       .  S
C6         C1069   1.408       .  A
C6            H7   1.080       .  S
O9           C12   1.267       .  A
O9          Cd14   2.489       .  S
C10         C964   1.484       .  S
C10          O19   1.265       .  A
C10          O15   1.268       .  A
O11          C17   1.267       .  A
O11         Cd14   2.477       .  S
C12         C929   1.496       .  S
C12          O20   1.263       .  A
C13         C901   1.500       .  S
C13          O18   1.266       .  A
C13          O16   1.264       .  A
Cd14         O21   2.455       .  S
Cd14         O20   2.458       .  S
Cd14         O19   2.444       .  S
Cd14         O15   2.484       .  S
Cd14         O18   2.478       .  S
Cd14         O16   2.473       .  S
C17         C985   1.483       .  S
C17          O21   1.265       .  A
O22          C25   1.267       .  A
O22         Cd27   2.505       .  S
C23        C1020   1.484       .  S
C23          O32   1.263       .  A
C23          O28   1.269       .  A
O24          C30   1.268       .  A
O24         Cd27   2.484       .  S
C25         C873   1.512       .  S
C25          O33   1.263       .  A
C26         C845   1.498       .  S
C26          O31   1.267       .  A
C26          O29   1.264       .  A
Cd27         O34   2.449       .  S
Cd27         O33   2.482       .  S
Cd27         O32   2.451       .  S
Cd27         O28   2.483       .  S
Cd27         O31   2.491       .  S
Cd27         O29   2.478       .  S
C30        C1048   1.482       .  S
C30          O34   1.264       .  A
O35          C38   1.266       .  A
O35       Cd1104   2.503       .  S
C36         C740   1.493       .  S
C36          O45   1.263       .  A
C36          O41   1.268   1_545  A
O37          C43   1.266       .  A
O37       Cd1104   2.492       .  S
C38         C817   1.487       .  S
C38          O46   1.262       .  A
C39         C789   1.482       .  S
C39          O44   1.267       .  A
C39          O42   1.265       .  A
Cd40         O45   2.459   1_565  S
Cd40         O41   2.475       .  S
Cd40         O44   2.470   1_565  S
Cd40         O42   2.454   1_565  S
Cd40       O1099   2.486       .  S
Cd40       O1101   2.449       .  S
Cd40       O1111   2.479       .  S
Cd40       O1110   2.441       .  S
C43         C761   1.504       .  S
C43          O47   1.264       .  A
O46       Cd1104   2.450       .  S
O47       Cd1104   2.465       .  S
C48          C49   1.415       .  A
C48          C53   1.403       .  A
C48         C677   1.496       .  S
C49          C50   1.402       .  A
C49         C824   1.488       .  S
C50          C51   1.401       .  A
C50          H55   1.081       .  S
C51          C52   1.418       .  A
C51         C796   1.494       .  S
C52          C53   1.407       .  A
C52         C712   1.495       .  S
C53          H54   1.081       .  S
O56        C1123   1.266   1_545  A
O56         Cd61   2.471   1_545  S
C57         C705   1.475       .  S
C57          O66   1.264       .  A
C57          O62   1.268       .  A
O58          C64   1.266       .  A
O58       Cd1125   2.487       .  S
C59         C621   1.491       .  S
C59          O67   1.265       .  A
C59        O1120   1.265       .  A
C60         C649   1.491       .  S
C60          O65   1.266   1_545  A
C60          O63   1.265       .  A
Cd61         O66   2.431   1_565  S
Cd61         O62   2.463   1_565  S
Cd61         O65   2.456       .  S
Cd61         O63   2.457   1_565  S
Cd61       O1122   2.476       .  S
Cd61       O1132   2.452       .  S
Cd61       O1131   2.435       .  S
C64         C684   1.492       .  S
C64          O68   1.263       .  A
O67       Cd1125   2.470       .  S
O68       Cd1125   2.475       .  S
C69          C70   1.417       .  A
C69          C74   1.403   1_556  A
C69         C628   1.497       .  S
C70          C71   1.407   1_556  A
C70         C908   1.502       .  S
C71          C72   1.410       .  A
C71          H76   1.084       .  S
C72          C73   1.423       .  A
C72         C572   1.504       .  S
C73          C74   1.407       .  A
C73         C600   1.502       .  S
C74          H75   1.084       .  S
C77          C78   1.414   1_455  A
C77        C1146   1.403       .  A
C77         C453   1.487       .  S
C78        C1143   1.400       .  A
C78         C544   1.488       .  S
C79          C80   1.401   1_565  A
C79        C1142   1.399       .  A
C79          H84   1.080       .  S
C80          C81   1.417   1_655  A
C80         C509   1.489       .  S
C81          C82   1.403   1_545  A
C81         C488   1.493       .  S
C82        C1141   1.402       .  A
C82          H83   1.080       .  S
O85          C88   1.268       .  A
O85         Cd90   2.464       .  S
C86         C425   1.501       .  S
C86          O95   1.265       .  A
C86          O91   1.267       .  A
O87          C93   1.269       .  A
O87         Cd90   2.489       .  S
C88         C460   1.487       .  S
C88          O96   1.264       .  A
C89         C565   1.499       .  S
C89          O94   1.269       .  A
C89          O92   1.266       .  A
Cd90         O97   2.443       .  S
Cd90         O96   2.436       .  S
Cd90         O95   2.443       .  S
Cd90         O91   2.468       .  S
Cd90         O94   2.479       .  S
Cd90         O92   2.460       .  S
C93         C481   1.493       .  S
C93          O97   1.263       .  A
O98         C101   1.267       .  A
O98        Cd103   2.469       .  S
C99         C516   1.492       .  S
C99         O108   1.263       .  A
C99         O104   1.267       .  A
O100        C106   1.266       .  A
O100       Cd103   2.471       .  S
C101        C369   1.494       .  S
C101        O109   1.266       .  A
C102        C537   1.493       .  S
C102        O107   1.268       .  A
C102        O105   1.264       .  A
Cd103       O110   2.466       .  S
Cd103       O109   2.476       .  S
Cd103       O108   2.452       .  S
Cd103       O104   2.483       .  S
Cd103       O107   2.479       .  S
Cd103       O105   2.445       .  S
C106        C397   1.507       .  S
C106        O110   1.265       .  A
O111        C114   1.268       .  A
O111      Cd1180   2.488       .  S
C112        C292   1.498       .  S
C112        O121   1.265       .  A
C112        O117   1.266       .  A
O113        C119   1.267       .  A
O113       Cd116   2.494       .  S
C114        C341   1.493       .  S
C114        O122   1.265       .  A
C115        C257   1.492       .  S
C115        O120   1.268       .  A
C115        O118   1.266       .  A
Cd116       O123   2.449       .  S
Cd116       O121   2.483       .  S
Cd116       O117   2.464       .  S
Cd116      O1175   2.489   1_545  S
Cd116      O1186   2.443   1_545  S
Cd116      O1184   2.470       .  S
Cd116      O1182   2.452   1_545  S
O118      Cd1180   2.459       .  S
C119        C320   1.491       .  S
C119        O123   1.263       .  A
O120      Cd1180   2.457       .  S
O122      Cd1180   2.442       .  S
O124       C1191   1.269   1_545  A
O124       Cd129   2.501       .  S
C125        C229   1.495       .  S
C125        O134   1.265       .  A
C125        O130   1.271       .  A
O126        C132   1.268       .  A
O126       Cd129   2.474       .  S
C127        C593   1.505       .  S
C127        O135   1.266       .  A
C127       O1188   1.269       .  A
C128        C208   1.493       .  S
C128        O133   1.269       .  A
C128        O131   1.263       .  A
Cd129       O136   2.461       .  S
Cd129       O134   2.442       .  S
Cd129       O130   2.483       .  S
Cd129      O1199   2.457   1_545  S
Cd129      O1197   2.479   1_545  S
Cd129      O1195   2.448   1_545  S
O131      Cd1193   2.444       .  S
C132        C180   1.503       .  S
C132        O136   1.267       .  A
O133      Cd1193   2.487       .  S
O135      Cd1193   2.462       .  S
C137        C138   1.419       .  A
C137        C142   1.400       .  A
C137        C348   1.495       .  S
C138        C139   1.402       .  A
C138        C201   1.492       .  S
C139        C140   1.401       .  A
C139        H144   1.099       .  S
C140        C141   1.416       .  A
C140        C236   1.492       .  S
C141        C142   1.400       .  A
C141        C313   1.491       .  S
C142        H143   1.095       .  S
C145        C146   1.416       .  A
C145        C150   1.402       .  A
C145        C852   1.498       .  S
C146        C147   1.405   1_556  A
C146        C733   1.492       .  S
C147        C148   1.406       .  A
C147        H152   1.083       .  S
C148        C149   1.419       .  A
C148        C285   1.502       .  S
C149        C150   1.404   1_554  A
C149        C404   1.492       .  S
C150        H151   1.083       .  S
C153        C154   1.418       .  A
C153        C158   1.407       .  A
C153        C656   1.493       .  S
C154        C155   1.401       .  A
C154        C936   1.496       .  S
C155        C156   1.400       .  A
C155        H160   1.083       .  S
C156        C157   1.414       .  A
C156        C432   1.486       .  S
C157        C158   1.403       .  A
C157        C173   1.495       .  S
C158        H159   1.083       .  S
C161        C162   1.417       .  A
C161        C166   1.402       .  A
C161        C768   1.493       .  S
C162        C163   1.406       .  A
C162        C880   1.496       .  S
C163        C164   1.404       .  A
C163        H168   1.084       .  S
C164        C165   1.416       .  A
C164        C376   1.497       .  S
C165        C166   1.403       .  A
C165        C264   1.490       .  S
C166        H167   1.084       .  S
C169        C170   1.411       .  A
C169        C174   1.414       .  A
C169        C187   1.451       .  S
C170        C171   1.410       .  A
C170        C175   1.502       .  S
C171        C172   1.411       .  A
C171        C176   1.450       .  S
C172        C173   1.414       .  A
C172        C188   1.449       .  S
C173        C174   1.415       .  A
C174        C177   1.449       .  S
C175        C178   1.408       .  A
C175        C182   1.410       .  A
C176        N193   1.157       .  T
C177        N195   1.157       .  T
C178        C179   1.413       .  A
C178        C183   1.448       .  S
C179        C180   1.421       .  A
C179        C185   1.451       .  S
C180        C181   1.422       .  A
C181        C182   1.414       .  A
C181       C1248   1.451       .  S
C182        C186   1.451       .  S
C183        N190   1.156       .  T
C184       C1245   1.451       .  S
C184        N191   1.158       .  T
C185        N189   1.158       .  T
C186        N192   1.157       .  T
C187        N196   1.157       .  T
C188        N194   1.157       .  T
C197        C198   1.411       .  A
C197        C202   1.411       .  A
C197        C215   1.451       .  S
C198        C199   1.409       .  A
C198        C203   1.496       .  S
C199        C200   1.409       .  A
C199        C204   1.450       .  S
C200        C201   1.413       .  A
C200        C216   1.449       .  S
C201        C202   1.416       .  A
C202        C205   1.450       .  S
C203        C206   1.410       .  A
C203        C210   1.408       .  A
C204        N221   1.157       .  T
C205        N223   1.157       .  T
C206        C207   1.411       .  A
C206        C211   1.451       .  S
C207        C208   1.417       .  A
C207        C213   1.451       .  S
C208        C209   1.421       .  A
C209        C210   1.412       .  A
C209        C212   1.451       .  S
C210        C214   1.451       .  S
C211        N218   1.157       .  T
C212        N219   1.158       .  T
C213        N217   1.157       .  T
C214        N220   1.157       .  T
C215        N224   1.157       .  T
C216        N222   1.157       .  T
C225        C226   1.410       .  A
C225        C230   1.410       .  A
C225        C243   1.452       .  S
C226        C227   1.408       .  A
C226        C231   1.495       .  S
C227        C228   1.413       .  A
C227        C232   1.451       .  S
C228        C229   1.421       .  A
C228        C244   1.451       .  S
C229        C230   1.417       .  A
C230        C233   1.451       .  S
C231        C234   1.410       .  A
C231        C238   1.409       .  A
C232        N249   1.157       .  T
C233        N251   1.157       .  T
C234        C235   1.410       .  A
C234        C239   1.450       .  S
C235        C236   1.415       .  A
C235        C241   1.451       .  S
C236        C237   1.413       .  A
C237        C238   1.409       .  A
C237        C240   1.449       .  S
C238        C242   1.451       .  S
C239        N246   1.157       .  T
C240        N247   1.157       .  T
C241        N245   1.157       .  T
C242        N248   1.157       .  T
C243        N252   1.157       .  T
C244        N250   1.157       .  T
C253        C254   1.409       .  A
C253        C258   1.408       .  A
C253        C271   1.452       .  S
C254        C255   1.407       .  A
C254        C259   1.493       .  S
C255        C256   1.413       .  A
C255        C260   1.451       .  S
C256        C257   1.420       .  A
C256        C272   1.451       .  S
C257        C258   1.417       .  A
C258       C1325   1.452       .  S
C259        C262   1.409       .  A
C259        C266   1.409       .  A
C260        N277   1.157       .  T
C261       C1322   1.451       .  S
C261        N279   1.157       .  T
C262        C263   1.409       .  A
C262        C267   1.451       .  S
C263        C264   1.413       .  A
C263        C269   1.449       .  S
C264        C265   1.416       .  A
C265        C266   1.409       .  A
C265        C268   1.451       .  S
C266        C270   1.451       .  S
C267        N274   1.157       .  T
C268        N275   1.157       .  T
C269        N273   1.157       .  T
C270        N276   1.157       .  T
C271        N280   1.157       .  T
C272        N278   1.157       .  T
C281        C282   1.410       .  A
C281        C286   1.411       .  A
C281        C299   1.451       .  S
C282        C283   1.410       .  A
C282        C287   1.500       .  S
C283        C284   1.414       .  A
C283        C288   1.450       .  S
C284        C285   1.417       .  A
C284        C300   1.448       .  S
C285        C286   1.418       .  A
C286        C289   1.451       .  S
C287        C290   1.409       .  A
C287        C294   1.409       .  A
C288        N305   1.157       .  T
C289        N307   1.157       .  T
C290        C291   1.411       .  A
C290        C295   1.451       .  S
C291        C292   1.418       .  A
C291        C297   1.451   1_545  S
C292        C293   1.421       .  A
C293        C294   1.415       .  A
C293        C296   1.451       .  S
C294        C298   1.451       .  S
C295        N302   1.157       .  T
C296        N303   1.158       .  T
C297        N301   1.157       .  T
C298        N304   1.157       .  T
C299        N308   1.157       .  T
C300        N306   1.157       .  T
C309        C310   1.411       .  A
C309        C314   1.409       .  A
C309        C327   1.451       .  S
C310        C311   1.410       .  A
C310        C315   1.496       .  S
C311        C312   1.411       .  A
C311        C316   1.450       .  S
C312        C313   1.414       .  A
C312        C328   1.449       .  S
C313        C314   1.414       .  A
C314        C317   1.451       .  S
C315        C318   1.411       .  A
C315        C322   1.409       .  A
C316        N333   1.157       .  T
C317        N335   1.157       .  T
C318        C319   1.412       .  A
C318        C323   1.451       .  S
C319        C320   1.416       .  A
C319        C325   1.451       .  S
C320        C321   1.418       .  A
C321        C322   1.411       .  A
C321        C324   1.451       .  S
C322        C326   1.452       .  S
C323        N330   1.157       .  T
C324        N331   1.157       .  T
C325        N329   1.157       .  T
C326        N332   1.157       .  T
C327        N336   1.157       .  T
C328        N334   1.157       .  T
C337        C338   1.411       .  A
C337        C342   1.414       .  A
C337        C355   1.451       .  S
C338        C339   1.408       .  A
C338        C343   1.498       .  S
C339        C340   1.410       .  A
C339        C344   1.451       .  S
C340        C341   1.419       .  A
C340        C356   1.451       .  S
C341        C342   1.417       .  A
C342        C345   1.451       .  S
C343        C346   1.410       .  A
C343        C350   1.410       .  A
C344        N361   1.157       .  T
C345        N363   1.158       .  T
C346        C347   1.409       .  A
C346        C351   1.451       .  S
C347        C348   1.416       .  A
C347        C353   1.451       .  S
C348        C349   1.414       .  A
C349        C350   1.413       .  A
C349        C352   1.449       .  S
C350        C354   1.450       .  S
C351        N358   1.157       .  T
C352        N359   1.157       .  T
C353        N357   1.157       .  T
C354        N360   1.157       .  T
C355        N364   1.157       .  T
C356        N362   1.157       .  T
C365        C366   1.411       .  A
C365        C370   1.414       .  A
C365        C383   1.451       .  S
C366        C367   1.411       .  A
C366        C371   1.501       .  S
C367        C368   1.411       .  A
C367        C372   1.452       .  S
C368        C369   1.417       .  A
C368        C384   1.452       .  S
C369        C370   1.417       .  A
C370        C373   1.450       .  S
C371        C374   1.411       .  A
C371        C378   1.412       .  A
C372        N389   1.157       .  T
C373        N391   1.157       .  T
C374        C375   1.413       .  A
C374        C379   1.450       .  S
C375        C376   1.416       .  A
C375        C381   1.451       .  S
C376        C377   1.413       .  A
C377        C378   1.412       .  A
C377        C380   1.448       .  S
C378        C382   1.451       .  S
C379        N386   1.157       .  T
C380        N387   1.157       .  T
C381        N385   1.157       .  T
C382        N388   1.157       .  T
C383        N392   1.157       .  T
C384        N390   1.157       .  T
C393        C394   1.406       .  A
C393        C398   1.412       .  A
C393        C411   1.453       .  S
C394        C395   1.407       .  A
C394        C399   1.495       .  S
C395        C396   1.412       .  A
C395        C400   1.452       .  S
C396        C397   1.425       .  A
C396        C412   1.451       .  S
C397        C398   1.426       .  A
C398        C401   1.451       .  S
C399        C402   1.410       .  A
C399        C406   1.410       .  A
C400        N417   1.157       .  T
C401        N419   1.158       .  T
C402        C403   1.409       .  A
C402        C407   1.450       .  S
C403        C404   1.413       .  A
C403        C409   1.449       .  S
C404        C405   1.416       .  A
C405        C406   1.410       .  A
C405        C408   1.452       .  S
C406        C410   1.451       .  S
C407        N414   1.157       .  T
C408        N415   1.157       .  T
C409        N413   1.157       .  T
C410        N416   1.157       .  T
C411        N420   1.157       .  T
C412        N418   1.158       .  T
C421        C422   1.406       .  A
C421        C426   1.409       .  A
C421        C439   1.451       .  S
C422        C423   1.408       .  A
C422        C427   1.495       .  S
C423        C424   1.412       .  A
C423        C428   1.452       .  S
C424        C425   1.423       .  A
C424        C440   1.451       .  S
C425        C426   1.424       .  A
C426        C429   1.452       .  S
C427        C430   1.410       .  A
C427        C434   1.410       .  A
C428        N445   1.157       .  T
C429        N447   1.158       .  T
C430        C431   1.410       .  A
C430        C435   1.451       .  S
C431        C432   1.413       .  A
C431        C437   1.449       .  S
C432        C433   1.414       .  A
C433        C434   1.408       .  A
C433        C436   1.450       .  S
C434        C438   1.451       .  S
C435        N442   1.157       .  T
C436        N443   1.157       .  T
C437        N441   1.157       .  T
C438        N444   1.157       .  T
C439        N448   1.156       .  T
C440        N446   1.158       .  T
C449        C450   1.410       .  A
C449        C454   1.410       .  A
C449        C467   1.451       .  S
C450        C451   1.409       .  A
C450        C455   1.492       .  S
C451        C452   1.408       .  A
C451        C456   1.450       .  S
C452        C453   1.413       .  A
C452        C468   1.451       .  S
C453        C454   1.413       .  A
C454        C457   1.449       .  S
C455        C458   1.408       .  A
C455        C462   1.410       .  A
C456        N473   1.157       .  T
C457        N475   1.157       .  T
C458        C459   1.410       .  A
C458        C463   1.451       .  S
C459        C460   1.419       .  A
C459        C465   1.451       .  S
C460        C461   1.415       .  A
C461        C462   1.408       .  A
C461        C464   1.451       .  S
C462        C466   1.451       .  S
C463        N470   1.157       .  T
C464        N471   1.157       .  T
C465        N469   1.157       .  T
C466        N472   1.157       .  T
C467        N476   1.157       .  T
C468        N474   1.157       .  T
C477        C478   1.411       .  A
C477        C482   1.412       .  A
C477        C495   1.451       .  S
C478        C479   1.409       .  A
C478        C483   1.498       .  S
C479        C480   1.412       .  A
C479        C484   1.451       .  S
C480        C481   1.420       .  A
C480        C496   1.452       .  S
C481        C482   1.416       .  A
C482        C485   1.451       .  S
C483        C486   1.410       .  A
C483        C490   1.411       .  A
C484        N501   1.157       .  T
C485        N503   1.157       .  T
C486        C487   1.412       .  A
C486        C491   1.451       .  S
C487        C488   1.416       .  A
C487        C493   1.451       .  S
C488        C489   1.413       .  A
C489        C490   1.411       .  A
C489        C492   1.449       .  S
C490        C494   1.451       .  S
C491        N498   1.157       .  T
C492        N499   1.157       .  T
C493        N497   1.157       .  T
C494        N500   1.157       .  T
C495        N504   1.157       .  T
C496        N502   1.157       .  T
C505        C506   1.409       .  A
C505        C510   1.410       .  A
C505        C523   1.451       .  S
C506        C507   1.409       .  A
C506        C511   1.494       .  S
C507        C508   1.410       .  A
C507        C512   1.450       .  S
C508        C509   1.413       .  A
C508        C524   1.449       .  S
C509        C510   1.416       .  A
C510        C513   1.451       .  S
C511        C514   1.410       .  A
C511        C518   1.407       .  A
C512        N529   1.157       .  T
C513        N531   1.157       .  T
C514        C515   1.412       .  A
C514        C519   1.451       .  S
C515        C516   1.418       .  A
C515        C521   1.451       .  S
C516        C517   1.419       .  A
C517        C518   1.410       .  A
C517        C520   1.450       .  S
C518        C522   1.452       .  S
C519        N526   1.157       .  T
C520        N527   1.157       .  T
C521        N525   1.158       .  T
C522        N528   1.157       .  T
C523        N532   1.157       .  T
C524        N530   1.157       .  T
C533        C534   1.407       .  A
C533        C538   1.410       .  A
C533        C551   1.452       .  S
C534        C535   1.409       .  A
C534        C539   1.492       .  S
C535        C536   1.411       .  A
C535        C540   1.451       .  S
C536        C537   1.418       .  A
C536        C552   1.451       .  S
C537        C538   1.420       .  A
C538        C541   1.451       .  S
C539        C542   1.409       .  A
C539        C546   1.409       .  A
C540        N557   1.157       .  T
C541        N559   1.157       .  T
C542        C543   1.409       .  A
C542        C547   1.451       .  S
C543        C544   1.414       .  A
C543        C549   1.448       .  S
C544        C545   1.415       .  A
C545        C546   1.407       .  A
C545        C548   1.452       .  S
C546        C550   1.451       .  S
C547        N554   1.157       .  T
C548        N555   1.157       .  T
C549        N553   1.157       .  T
C550        N556   1.157       .  T
C551        N560   1.157       .  T
C552        N558   1.157       .  T
C561        C562   1.409       .  A
C561        C566   1.412       .  A
C561        C579   1.452       .  S
C562        C563   1.412       .  A
C562        C567   1.503       .  S
C563        C564   1.414       .  A
C563        C568   1.450       .  S
C564        C565   1.418       .  A
C564        C580   1.451       .  S
C565        C566   1.421       .  A
C566        C569   1.451       .  S
C567        C570   1.410       .  A
C567        C574   1.411       .  A
C568        N585   1.157       .  T
C569        N587   1.157       .  T
C570        C571   1.415       .  A
C570        C575   1.450       .  S
C571        C572   1.417       .  A
C571        C577   1.448       .  S
C572        C573   1.419       .  A
C573        C574   1.411       .  A
C573        C576   1.452       .  S
C574        C578   1.452       .  S
C575        N582   1.157       .  T
C576        N583   1.157       .  T
C577        N581   1.157       .  T
C578        N584   1.157       .  T
C579        N588   1.157       .  T
C580        N586   1.158       .  T
C589        C590   1.408       .  A
C589        C594   1.414       .  A
C589        C607   1.452       .  S
C590        C591   1.411       .  A
C590        C595   1.502       .  S
C591        C592   1.415       .  A
C591        C596   1.451       .  S
C592        C593   1.420       .  A
C592       C1672   1.451       .  S
C593        C594   1.424       .  A
C594        C597   1.451       .  S
C595        C598   1.411       .  A
C595        C602   1.410       .  A
C596       N1677   1.157       .  T
C597        N615   1.157       .  T
C598        C599   1.414       .  A
C598        C603   1.450       .  S
C599        C600   1.416       .  A
C599        C605   1.448       .  S
C600        C601   1.419       .  A
C601        C602   1.411       .  A
C601        C604   1.452       .  S
C602        C606   1.451       .  S
C603        N610   1.157       .  T
C604        N611   1.157       .  T
C605        N609   1.157       .  T
C606        N612   1.157       .  T
C607        N616   1.157       .  T
C608       C1656   1.450   1_545  S
C608        N614   1.157       .  T
N613       C1660   1.157       .  T
C617        C618   1.410       .  A
C617        C622   1.410       .  A
C617        C635   1.451       .  S
C618        C619   1.409       .  A
C618        C623   1.496       .  S
C619        C620   1.412       .  A
C619        C624   1.450       .  S
C620        C621   1.417       .  A
C620        C636   1.451       .  S
C621        C622   1.417       .  A
C622        C625   1.452       .  S
C623        C626   1.410       .  A
C623        C630   1.409       .  A
C624        N641   1.157       .  T
C625       N1707   1.157       .  T
C626        C627   1.413       .  A
C626        C631   1.451       .  S
C627        C628   1.417       .  A
C627        C633   1.450       .  S
C628        C629   1.414       .  A
C629        C630   1.409       .  A
C629        C632   1.448       .  S
C630        C634   1.451       .  S
C631        N638   1.157       .  T
C632        N639   1.157       .  T
C633        N637   1.157       .  T
C634        N640   1.157       .  T
C635        N644   1.157       .  T
C636        N642   1.157       .  T
N643       C1689   1.157       .  T
C645        C646   1.409       .  A
C645        C650   1.409       .  A
C645        C663   1.452       .  S
C646        C647   1.408       .  A
C646        C651   1.493       .  S
C647        C648   1.412       .  A
C647        C652   1.451       .  S
C648        C649   1.418       .  A
C648        C664   1.451       .  S
C649        C650   1.418       .  A
C650        C653   1.452       .  S
C651        C654   1.408       .  A
C651        C658   1.410       .  A
C652        N669   1.157       .  T
C653        N671   1.157       .  T
C654        C655   1.407       .  A
C654        C659   1.451       .  S
C655        C656   1.417       .  A
C655        C661   1.452       .  S
C656        C657   1.414       .  A
C657        C658   1.411       .  A
C657        C660   1.449       .  S
C658        C662   1.451       .  S
C659        N666   1.157       .  T
C660        N667   1.157       .  T
C661        N665   1.157       .  T
C662        N668   1.157       .  T
C663        N672   1.157       .  T
C664        N670   1.157       .  T
C673        C674   1.410       .  A
C673        C678   1.411       .  A
C673        C691   1.450       .  S
C674        C675   1.410       .  A
C674        C679   1.499       .  S
C675        C676   1.413       .  A
C675        C680   1.451       .  S
C676        C677   1.414       .  A
C676        C692   1.448       .  S
C677        C678   1.416       .  A
C678        C681   1.451       .  S
C679        C682   1.411       .  A
C679        C686   1.410       .  A
C680        N697   1.157       .  T
C681        N699   1.157       .  T
C682        C683   1.412       .  A
C682        C687   1.451       .  S
C683        C684   1.416       .  A
C683        C689   1.451       .  S
C684        C685   1.417       .  A
C685        C686   1.413       .  A
C685        C688   1.451       .  S
C686        C690   1.451       .  S
C687        N694   1.157       .  T
C688        N695   1.157       .  T
C689        N693   1.157       .  T
C690        N696   1.157       .  T
C691        N700   1.157       .  T
C692        N698   1.157       .  T
C701        C702   1.411       .  A
C701        C706   1.407       .  A
C701        C719   1.451       .  S
C702        C703   1.411       .  A
C702        C707   1.491       .  S
C703        C704   1.411       .  A
C703        C708   1.450       .  S
C704        C705   1.412       .  A
C704        C720   1.451       .  S
C705        C706   1.411       .  A
C706        C709   1.451       .  S
C707        C710   1.408       .  A
C707        C714   1.409       .  A
C708        N725   1.157       .  T
C709        N727   1.157       .  T
C710        C711   1.408       .  A
C710        C715   1.451       .  S
C711        C712   1.419       .  A
C711        C717   1.452       .  S
C712        C713   1.414       .  A
C713        C714   1.410       .  A
C713        C716   1.448       .  S
C714        C718   1.451       .  S
C715        N722   1.157       .  T
C716        N723   1.157       .  T
C717        N721   1.157       .  T
C718        N724   1.157       .  T
C719        N728   1.157       .  T
C720        N726   1.157       .  T
C729        C730   1.411       .  A
C729        C734   1.410       .  A
C729        C747   1.451       .  S
C730        C731   1.411       .  A
C730        C735   1.497       .  S
C731        C732   1.411       .  A
C731        C736   1.451       .  S
C732        C733   1.414       .  A
C732        C748   1.449       .  S
C733        C734   1.414       .  A
C734        C737   1.450       .  S
C735        C738   1.411       .  A
C735        C742   1.409       .  A
C736        N753   1.157       .  T
C737        N755   1.157       .  T
C738        C739   1.411       .  A
C738        C743   1.451       .  S
C739        C740   1.417       .  A
C739        C745   1.452       .  S
C740        C741   1.419       .  A
C741        C742   1.412       .  A
C741        C744   1.451       .  S
C742        C746   1.451       .  S
C743        N750   1.157       .  T
C744        N751   1.157       .  T
C745       N1813   1.157       .  T
C746        N752   1.157       .  T
C747        N756   1.157       .  T
C748        N754   1.157       .  T
N749       C1809   1.157       .  T
C757        C758   1.407       .  A
C757        C762   1.412       .  A
C757        C775   1.453       .  S
C758        C759   1.408       .  A
C758        C763   1.497       .  S
C759        C760   1.414       .  A
C759        C764   1.451       .  S
C760        C761   1.422       .  A
C760       C1840   1.451       .  S
C761        C762   1.424       .  A
C762        C765   1.450       .  S
C763        C766   1.410       .  A
C763        C770   1.410       .  A
C764        N781   1.157       .  T
C765        N783   1.157       .  T
C766        C767   1.409       .  A
C766        C771   1.451       .  S
C767        C768   1.415       .  A
C767        C773   1.451       .  S
C768        C769   1.413       .  A
C769        C770   1.411       .  A
C769        C772   1.448       .  S
C770        C774   1.450       .  S
C771        N778   1.157       .  T
C772        N779   1.157       .  T
C773        N777   1.157       .  T
C774        N780   1.157       .  T
C775        N784   1.157       .  T
C776       C1824   1.451   1_545  S
C776        N782   1.157       .  T
C785        C786   1.412       .  A
C785        C790   1.410       .  A
C785        C803   1.450       .  S
C786        C787   1.411       .  A
C786        C791   1.497       .  S
C787        C788   1.411       .  A
C787        C792   1.451       .  S
C788        C789   1.413       .  A
C788        C804   1.451       .  S
C789        C790   1.412       .  A
C790        C793   1.452       .  S
C791        C794   1.409       .  A
C791        C798   1.411       .  A
C792        N809   1.157       .  T
C793        N811   1.157       .  T
C794        C795   1.410       .  A
C794        C799   1.451       .  S
C795        C796   1.417       .  A
C795        C801   1.452       .  S
C796        C797   1.413       .  A
C797        C798   1.411       .  A
C797        C800   1.449       .  S
C798        C802   1.450       .  S
C799        N806   1.157       .  T
C800        N807   1.157       .  T
C801        N805   1.157       .  T
C802        N808   1.157       .  T
C803        N812   1.157       .  T
C804        N810   1.157       .  T
C813        C814   1.411       .  A
C813        C818   1.412       .  A
C813        C831   1.451       .  S
C814        C815   1.408       .  A
C814        C819   1.494       .  S
C815        C816   1.410       .  A
C815        C820   1.450       .  S
C816        C817   1.416       .  A
C816        C832   1.451       .  S
C817        C818   1.415       .  A
C818        C821   1.449       .  S
C819        C822   1.408       .  A
C819        C826   1.411       .  A
C820        N837   1.157       .  T
C821        N839   1.157       .  T
C822        C823   1.408       .  A
C822        C827   1.450       .  S
C823        C824   1.416       .  A
C823        C829   1.451       .  S
C824        C825   1.412       .  A
C825        C826   1.411       .  A
C825        C828   1.449       .  S
C826        C830   1.450       .  S
C827        N834   1.157       .  T
C828        N835   1.157       .  T
C829        N833   1.157       .  T
C830        N836   1.157       .  T
C831        N840   1.157       .  T
C832        N838   1.157       .  T
C841        C842   1.409       .  A
C841        C846   1.415       .  A
C841        C859   1.450       .  S
C842        C843   1.411       .  A
C842        C847   1.502       .  S
C843        C844   1.413       .  A
C843        C848   1.451       .  S
C844        C845   1.418       .  A
C844        C860   1.451       .  S
C845        C846   1.420       .  A
C846        C849   1.450       .  S
C847        C850   1.411       .  A
C847        C854   1.410       .  A
C848        N865   1.157       .  T
C849        N867   1.157       .  T
C850        C851   1.413       .  A
C850        C855   1.450       .  S
C851        C852   1.415       .  A
C851        C857   1.448       .  S
C852        C853   1.416       .  A
C853        C854   1.412       .  A
C853        C856   1.451       .  S
C854        C858   1.450       .  S
C855        N862   1.157       .  T
C856        N863   1.157       .  T
C857        N861   1.157       .  T
C858        N864   1.157       .  T
C859        N868   1.157       .  T
C860        N866   1.157       .  T
C869        C870   1.410       .  A
C869        C874   1.413       .  A
C869        C887   1.453       .  S
C870        C871   1.407       .  A
C870        C875   1.502       .  S
C871        C872   1.416       .  A
C871        C876   1.451       .  S
C872        C873   1.427       .  A
C872        C888   1.451       .  S
C873        C874   1.423       .  A
C874        C877   1.451       .  S
C875        C878   1.411       .  A
C875        C882   1.411       .  A
C876        N893   1.157       .  T
C877        N895   1.157       .  T
C878        C879   1.414       .  A
C878        C883   1.450       .  S
C879        C880   1.415       .  A
C879        C885   1.449       .  S
C880        C881   1.415       .  A
C881        C882   1.410       .  A
C881        C884   1.451       .  S
C882        C886   1.450       .  S
C883        N890   1.157       .  T
C884        N891   1.157       .  T
C885        N889   1.157       .  T
C886        N892   1.157       .  T
C887        N896   1.157       .  T
C888        N894   1.158       .  T
C897        C898   1.409       .  A
C897        C902   1.415       .  A
C897        C915   1.451       .  S
C898        C899   1.410       .  A
C898        C903   1.501       .  S
C899        C900   1.412       .  A
C899        C904   1.452       .  S
C900        C901   1.420       .  A
C900        C916   1.451       .  S
C901        C902   1.421       .  A
C902        C905   1.451       .  S
C903        C906   1.411       .  A
C903        C910   1.409       .  A
C904        N921   1.157       .  T
C905        N923   1.158       .  T
C906        C907   1.414       .  A
C906        C911   1.451       .  S
C907        C908   1.417       .  A
C907        C913   1.449       .  S
C908        C909   1.417       .  A
C909        C910   1.412       .  A
C909        C912   1.450       .  S
C910        C914   1.450       .  S
C911        N918   1.157       .  T
C912        N919   1.157       .  T
C913        N917   1.157       .  T
C914        N920   1.157       .  T
C915        N924   1.157       .  T
C916        N922   1.157       .  T
C925        C926   1.407       .  A
C925        C930   1.412       .  A
C925        C943   1.451       .  S
C926        C927   1.410       .  A
C926        C931   1.496       .  S
C927        C928   1.412       .  A
C927        C932   1.452       .  S
C928        C929   1.419       .  A
C928        C944   1.451       .  S
C929        C930   1.420       .  A
C930        C933   1.451       .  S
C931        C934   1.409       .  A
C931        C938   1.409       .  A
C932        N949   1.157       .  T
C933        N951   1.157       .  T
C934        C935   1.411       .  A
C934        C939   1.450       .  S
C935        C936   1.415       .  A
C935        C941   1.448       .  S
C936        C937   1.418       .  A
C937        C938   1.410       .  A
C937        C940   1.452       .  S
C938        C942   1.451       .  S
C939        N946   1.157       .  T
C940        N947   1.157       .  T
C941        N945   1.157       .  T
C942        N948   1.157       .  T
C943        N952   1.157       .  T
C944        N950   1.158       .  T
C953        C954   1.409       .  A
C953        C958   1.410       .  A
C953        C971   1.451       .  S
C954        C955   1.411       .  A
C954        C959   1.496       .  S
C955        C956   1.411       .  A
C955        C960   1.450       .  S
C956        C957   1.413       .  A
C956        C972   1.449       .  S
C957        C958   1.415       .  A
C958        C961   1.451       .  S
C959        C962   1.412       .  A
C959        C966   1.409       .  A
C960        N977   1.157       .  T
C961        N979   1.157       .  T
C962        C963   1.412       .  A
C962        C967   1.451       .  S
C963        C964   1.413       .  A
C963        C969   1.451       .  S
C964        C965   1.414       .  A
C965        C966   1.410       .  A
C965        C968   1.450       .  S
C966        C970   1.450       .  S
C967        N974   1.157       .  T
C968        N975   1.157       .  T
C969        N973   1.157       .  T
C970        N976   1.157       .  T
C971        N980   1.157       .  T
C972        N978   1.157       .  T
C981        C982   1.411       .  A
C981        C986   1.410       .  A
C981        C999   1.451       .  S
C982        C983   1.409       .  A
C982        C987   1.493       .  S
C983        C984   1.410       .  A
C983        C988   1.451       .  S
C984        C985   1.414       .  A
C984       C1000   1.450       .  S
C985        C986   1.413       .  A
C986        C989   1.451       .  S
C987        C990   1.409       .  A
C987        C994   1.410       .  A
C988       N1005   1.157       .  T
C989       N1007   1.157       .  T
C990        C991   1.409       .  A
C990        C995   1.451       .  S
C991        C992   1.414       .  A
C991        C997   1.451       .  S
C992        C993   1.412       .  A
C993        C994   1.409       .  A
C993        C996   1.449       .  S
C994        C998   1.451       .  S
C995       N1002   1.157       .  T
C996       N1003   1.157       .  T
C997       N1001   1.157       .  T
C998       N1004   1.157       .  T
C999       N1008   1.157       .  T
C1000      N1006   1.157       .  T
C1009      C1010   1.409       .  A
C1009      C1014   1.410       .  A
C1009      C1027   1.450       .  S
C1010      C1011   1.412       .  A
C1010      C1015   1.497       .  S
C1011      C1012   1.411       .  A
C1011      C1016   1.451       .  S
C1012      C1013   1.412       .  A
C1012      C1028   1.449       .  S
C1013      C1014   1.415       .  A
C1014      C1017   1.450       .  S
C1015      C1018   1.411       .  A
C1015      C1022   1.411       .  A
C1016      N1033   1.157       .  T
C1017      N1035   1.157       .  T
C1018      C1019   1.410       .  A
C1018      C1023   1.450       .  S
C1019      C1020   1.413       .  A
C1019      C1025   1.451       .  S
C1020      C1021   1.415       .  A
C1021      C1022   1.413       .  A
C1021      C1024   1.450       .  S
C1022      C1026   1.451       .  S
C1023      N1030   1.157       .  T
C1024      N1031   1.157       .  T
C1025      N1029   1.157       .  T
C1026      N1032   1.157       .  T
C1027      N1036   1.157       .  T
C1028      N1034   1.157       .  T
C1037      C1038   1.410       .  A
C1037      C1042   1.411       .  A
C1037      C1055   1.451       .  S
C1038      C1039   1.409       .  A
C1038      C1043   1.496       .  S
C1039      C1040   1.411       .  A
C1039      C1044   1.450       .  S
C1040      C1041   1.416       .  A
C1040      C1056   1.451       .  S
C1041      C1042   1.414       .  A
C1042      C1045   1.448       .  S
C1043      C1046   1.410       .  A
C1043      C1050   1.412       .  A
C1044      N1061   1.157       .  T
C1045      N1063   1.157       .  T
C1046      C1047   1.413       .  A
C1046      C1051   1.450       .  S
C1047      C1048   1.415       .  A
C1047      C1053   1.451       .  S
C1048      C1049   1.411       .  A
C1049      C1050   1.410       .  A
C1049      C1052   1.451       .  S
C1050      C1054   1.451       .  S
C1051      N1058   1.157       .  T
C1052      N1059   1.157       .  T
C1053      N1057   1.157       .  T
C1054      N1060   1.157       .  T
C1055      N1064   1.157       .  T
C1056      N1062   1.157       .  T
C1065      C1066   1.413   1_655  A
C1065      C1070   1.403   1_565  A
C1065      C2105   1.487       .  S
C1066      C2021   1.488       .  S
C1067      C1068   1.403       .  A
C1067      H1072   1.081       .  S
C1068      C1069   1.418   1_455  A
C1068      C2056   1.492       .  S
C1069      C2077   1.498       .  S
C1070      H1071   1.081       .  S
O1073      C1076   1.267       .  A
O1073     Cd1078   2.451       .  S
C1074      C2028   1.480       .  S
C1074      O1083   1.263       .  A
C1074      O1079   1.265       .  A
O1075      C1081   1.267       .  A
O1075     Cd1078   2.479       .  S
C1076      C1993   1.493       .  S
C1076      O1084   1.267       .  A
C1077      C1965   1.491       .  S
C1077      O1082   1.267       .  A
C1077      O1080   1.262       .  A
Cd1078     O1085   2.460       .  S
Cd1078     O1084   2.467       .  S
Cd1078     O1083   2.450       .  S
Cd1078     O1079   2.473       .  S
Cd1078     O1082   2.480       .  S
Cd1078     O1080   2.441       .  S
C1081      C2049   1.484       .  S
C1081      O1085   1.265       .  A
O1086      C1089   1.267       .  A
O1086     Cd1091   2.507       .  S
C1087      C2084   1.488       .  S
C1087      O1096   1.263       .  A
C1087      O1092   1.269       .  A
O1088      C1094   1.267       .  A
O1088     Cd1091   2.478       .  S
C1089      C1937   1.501       .  S
C1089      O1097   1.262       .  A
C1090      C1909   1.490       .  S
C1090      O1095   1.266       .  A
C1090      O1093   1.264       .  A
Cd1091     O1098   2.439       .  S
Cd1091     O1097   2.458       .  S
Cd1091     O1096   2.446       .  S
Cd1091     O1092   2.500       .  S
Cd1091     O1095   2.475       .  S
Cd1091     O1093   2.447       .  S
C1094      C2112   1.481       .  S
C1094      O1098   1.264       .  A
O1099      C1102   1.268       .  A
C1100      C1804   1.501       .  S
C1100      O1109   1.266       .  A
C1100      O1105   1.267       .  A
O1101      C1107   1.266       .  A
C1102      C1881   1.479       .  S
C1102      O1110   1.263       .  A
C1103      C1853   1.479       .  S
C1103      O1108   1.268       .  A
C1103      O1106   1.264       .  A
Cd1104     O1109   2.481       .  S
Cd1104     O1105   2.479       .  S
Cd1104     O1108   2.479       .  S
Cd1104     O1106   2.443       .  S
C1107      C1825   1.496       .  S
C1107      O1111   1.264       .  A
C1112      C1113   1.415       .  A
C1112      C1117   1.403       .  A
C1112      C1741   1.489       .  S
C1113      C1114   1.403       .  A
C1113      C1888   1.493       .  S
C1114      C1115   1.402       .  A
C1114      H1119   1.078       .  S
C1115      C1116   1.415       .  A
C1115      C1860   1.491       .  S
C1116      C1117   1.404       .  A
C1116      C1776   1.492       .  S
C1117      H1118   1.078       .  S
O1120     Cd1125   2.469       .  S
C1121      C1769   1.482       .  S
C1121      O1130   1.266       .  A
C1121      O1126   1.266       .  A
O1122      C1128   1.265       .  A
C1123      C1685   1.487       .  S
C1123      O1131   1.263       .  A
C1124      C1713   1.499       .  S
C1124      O1129   1.267       .  A
C1124      O1127   1.265       .  A
Cd1125     O1130   2.446       .  S
Cd1125     O1126   2.467       .  S
Cd1125     O1129   2.490       .  S
Cd1125     O1127   2.468       .  S
C1128      C1748   1.484       .  S
C1128      O1132   1.263       .  A
C1133      C1134   1.413       .  A
C1133      C1138   1.401   1_556  A
C1133      C1692   1.489       .  S
C1134      C1135   1.400   1_556  A
C1134      C1972   1.493       .  S
C1135      C1136   1.405       .  A
C1135      H1140   1.084       .  S
C1136      C1137   1.421       .  A
C1136      C1636   1.494       .  S
C1137      C1138   1.404       .  A
C1137      C1664   1.498       .  S
C1138      H1139   1.084       .  S
C1141      C1142   1.412   1_455  A
C1141      C1517   1.487       .  S
C1142      C1608   1.488       .  S
C1143      C1144   1.398       .  A
C1143      H1148   1.080       .  S
C1144      C1145   1.415   1_655  A
C1144      C1573   1.488       .  S
C1145      C1146   1.404       .  A
C1145      C1552   1.490       .  S
C1146      H1147   1.080       .  S
O1149      C1152   1.269       .  A
O1149     Cd1154   2.468       .  S
C1150      C1489   1.494       .  S
C1150      O1159   1.265       .  A
C1150      O1155   1.268       .  A
O1151      C1157   1.269       .  A
O1151     Cd1154   2.477       .  S
C1152      C1524   1.485       .  S
C1152      O1160   1.264       .  A
C1153      C1629   1.498       .  S
C1153      O1158   1.269       .  A
C1153      O1156   1.265       .  A
Cd1154     O1161   2.449       .  S
Cd1154     O1160   2.441       .  S
Cd1154     O1159   2.445       .  S
Cd1154     O1155   2.472       .  S
Cd1154     O1158   2.477       .  S
Cd1154     O1156   2.452       .  S
C1157      C1545   1.493       .  S
C1157      O1161   1.264       .  A
O1162      C1165   1.267       .  A
O1162     Cd1167   2.464       .  S
C1163      C1580   1.493       .  S
C1163      O1172   1.263       .  A
C1163      O1168   1.267       .  A
O1164      C1170   1.266       .  A
O1164     Cd1167   2.465       .  S
C1165      C1433   1.492       .  S
C1165      O1173   1.266       .  A
C1166      C1601   1.487       .  S
C1166      O1171   1.267       .  A
C1166      O1169   1.264       .  A
Cd1167     O1174   2.466       .  S
Cd1167     O1173   2.471       .  S
Cd1167     O1172   2.455       .  S
Cd1167     O1168   2.476       .  S
Cd1167     O1171   2.471       .  S
Cd1167     O1169   2.438       .  S
C1170      C1461   1.495       .  S
C1170      O1174   1.265       .  A
O1175      C1178   1.268       .  A
C1176      C1356   1.496       .  S
C1176      O1185   1.264       .  A
C1176      O1181   1.266       .  A
O1177      C1183   1.268       .  A
O1177     Cd1180   2.497       .  S
C1178      C1405   1.495       .  S
C1178      O1186   1.264       .  A
C1179      C1321   1.491       .  S
C1179      O1184   1.268   1_565  A
C1179      O1182   1.266       .  A
Cd1180     O1187   2.444       .  S
Cd1180     O1185   2.467       .  S
Cd1180     O1181   2.455       .  S
C1183      C1384   1.491       .  S
C1183      O1187   1.263       .  A
O1188     Cd1193   2.492       .  S
C1189      C1293   1.501       .  S
C1189      O1198   1.264       .  A
C1189      O1194   1.269       .  A
O1190      C1196   1.268       .  A
O1190     Cd1193   2.500       .  S
C1191      C1657   1.502       .  S
C1191      O1199   1.264       .  A
C1192      C1272   1.491       .  S
C1192      O1197   1.268       .  A
C1192      O1195   1.264       .  A
Cd1193     O1200   2.470       .  S
Cd1193     O1198   2.446       .  S
Cd1193     O1194   2.499       .  S
C1196      C1244   1.507       .  S
C1196      O1200   1.266       .  A
C1201      C1202   1.417       .  A
C1201      C1206   1.401       .  A
C1201      C1412   1.497       .  S
C1202      C1203   1.400       .  A
C1202      C1265   1.488       .  S
C1203      C1204   1.399       .  A
C1203      H1208   1.101       .  S
C1204      C1205   1.418       .  A
C1204      C1300   1.495       .  S
C1205      C1206   1.404       .  A
C1205      C1377   1.493       .  S
C1206      H1207   1.097       .  S
C1209      C1210   1.421       .  A
C1209      C1214   1.406   1_556  A
C1209      C1916   1.495       .  S
C1210      C1211   1.406   1_556  A
C1210      C1797   1.502       .  S
C1211      C1212   1.405       .  A
C1211      H1216   1.083       .  S
C1212      C1213   1.414       .  A
C1212      C1349   1.495       .  S
C1213      C1214   1.400       .  A
C1213      C1468   1.494       .  S
C1214      H1215   1.083   1_554  S
C1217      C1218   1.417       .  A
C1217      C1222   1.405       .  A
C1217      C1720   1.498       .  S
C1218      C1219   1.402       .  A
C1218      C2000   1.492       .  S
C1219      C1220   1.404       .  A
C1219      H1224   1.084       .  S
C1220      C1221   1.419       .  A
C1220      C1496   1.494       .  S
C1221      C1222   1.406       .  A
C1221      C1237   1.500       .  S
C1222      H1223   1.083       .  S
C1225      C1226   1.417       .  A
C1225      C1230   1.402       .  A
C1225      C1832   1.491       .  S
C1226      C1227   1.404       .  A
C1226      C1944   1.494       .  S
C1227      C1228   1.401       .  A
C1227      H1232   1.084       .  S
C1228      C1229   1.416       .  A
C1228      C1440   1.494       .  S
C1229      C1230   1.403       .  A
C1229      C1328   1.490       .  S
C1230      H1231   1.084       .  S
C1233      C1234   1.411       .  A
C1233      C1238   1.414       .  A
C1233      C1251   1.450       .  S
C1234      C1235   1.410       .  A
C1234      C1239   1.503       .  S
C1235      C1236   1.412       .  A
C1235      C1240   1.450       .  S
C1236      C1237   1.418       .  A
C1236      C1252   1.452       .  S
C1237      C1238   1.416       .  A
C1238      C1241   1.448       .  S
C1239      C1242   1.407       .  A
C1239      C1246   1.411       .  A
C1240      N1257   1.157       .  T
C1241      N1259   1.157       .  T
C1242      C1243   1.413       .  A
C1242      C1247   1.452       .  S
C1243      C1244   1.423       .  A
C1243      C1249   1.451       .  S
C1244      C1245   1.422       .  A
C1245      C1246   1.416       .  A
C1246      C1250   1.451       .  S
C1247      N1254   1.157       .  T
C1248      N1255   1.158   1_545  T
C1249      N1253   1.157       .  T
C1250      N1256   1.157       .  T
C1251      N1260   1.157       .  T
C1252      N1258   1.157       .  T
C1261      C1262   1.411       .  A
C1261      C1266   1.410       .  A
C1261      C1279   1.451       .  S
C1262      C1263   1.409       .  A
C1262      C1267   1.494       .  S
C1263      C1264   1.408       .  A
C1263      C1268   1.451       .  S
C1264      C1265   1.413       .  A
C1264      C1280   1.449       .  S
C1265      C1266   1.414       .  A
C1266      C1269   1.450       .  S
C1267      C1270   1.410       .  A
C1267      C1274   1.408       .  A
C1268      N1285   1.157       .  T
C1269      N1287   1.157       .  T
C1270      C1271   1.410       .  A
C1270      C1275   1.451       .  S
C1271      C1272   1.416       .  A
C1271      C1277   1.451       .  S
C1272      C1273   1.419       .  A
C1273      C1274   1.411       .  A
C1273      C1276   1.451       .  S
C1274      C1278   1.452       .  S
C1275      N1282   1.157       .  T
C1276      N1283   1.157       .  T
C1277      N1281   1.157       .  T
C1278      N1284   1.157       .  T
C1279      N1288   1.157       .  T
C1280      N1286   1.157       .  T
C1289      C1290   1.410       .  A
C1289      C1294   1.412       .  A
C1289      C1307   1.452       .  S
C1290      C1291   1.407       .  A
C1290      C1295   1.498       .  S
C1291      C1292   1.413       .  A
C1291      C1296   1.452       .  S
C1292      C1293   1.424       .  A
C1292      C1308   1.452       .  S
C1293      C1294   1.419       .  A
C1294      C1297   1.450       .  S
C1295      C1298   1.410       .  A
C1295      C1302   1.411       .  A
C1296      N1313   1.157       .  T
C1297      N1315   1.157       .  T
C1298      C1299   1.410       .  A
C1298      C1303   1.450       .  S
C1299      C1300   1.416       .  A
C1299      C1305   1.451       .  S
C1300      C1301   1.413       .  A
C1301      C1302   1.411       .  A
C1301      C1304   1.449       .  S
C1302      C1306   1.450       .  S
C1303      N1310   1.157       .  T
C1304      N1311   1.157       .  T
C1305      N1309   1.157       .  T
C1306      N1312   1.157       .  T
C1307      N1316   1.157       .  T
C1308      N1314   1.158       .  T
C1317      C1318   1.410       .  A
C1317      C1322   1.410       .  A
C1317      C1335   1.452       .  S
C1318      C1319   1.408       .  A
C1318      C1323   1.494       .  S
C1319      C1320   1.412       .  A
C1319      C1324   1.451       .  S
C1320      C1321   1.419       .  A
C1320      C1336   1.451       .  S
C1321      C1322   1.417       .  A
C1323      C1326   1.411       .  A
C1323      C1330   1.408       .  A
C1324      N1341   1.157       .  T
C1325      N1343   1.157       .  T
C1326      C1327   1.410       .  A
C1326      C1331   1.451       .  S
C1327      C1328   1.413       .  A
C1327      C1333   1.449       .  S
C1328      C1329   1.416       .  A
C1329      C1330   1.409       .  A
C1329      C1332   1.451       .  S
C1330      C1334   1.451       .  S
C1331      N1338   1.157       .  T
C1332      N1339   1.157       .  T
C1333      N1337   1.157       .  T
C1334      N1340   1.157       .  T
C1335      N1344   1.157       .  T
C1336      N1342   1.157       .  T
C1345      C1346   1.409       .  A
C1345      C1350   1.408       .  A
C1345      C1363   1.451       .  S
C1346      C1347   1.409       .  A
C1346      C1351   1.495       .  S
C1347      C1348   1.412       .  A
C1347      C1352   1.450       .  S
C1348      C1349   1.415       .  A
C1348      C1364   1.449       .  S
C1349      C1350   1.416       .  A
C1350      C1353   1.451       .  S
C1351      C1354   1.409       .  A
C1351      C1358   1.408       .  A
C1352      N1369   1.157       .  T
C1353      N1371   1.157       .  T
C1354      C1355   1.409       .  A
C1354      C1359   1.452       .  S
C1355      C1356   1.418       .  A
C1355      C1361   1.452       .  S
C1356      C1357   1.422       .  A
C1357      C1358   1.413       .  A
C1357      C1360   1.451       .  S
C1358      C1362   1.451       .  S
C1359      N1366   1.157       .  T
C1360      N1367   1.158       .  T
C1361      N1365   1.157       .  T
C1362      N1368   1.157       .  T
C1363      N1372   1.157       .  T
C1364      N1370   1.157       .  T
C1373      C1374   1.410       .  A
C1373      C1378   1.409       .  A
C1373      C1391   1.451       .  S
C1374      C1375   1.409       .  A
C1374      C1379   1.495       .  S
C1375      C1376   1.410       .  A
C1375      C1380   1.451       .  S
C1376      C1377   1.414       .  A
C1376      C1392   1.449       .  S
C1377      C1378   1.415       .  A
C1378      C1381   1.451       .  S
C1379      C1382   1.410       .  A
C1379      C1386   1.408       .  A
C1380      N1397   1.157       .  T
C1381      N1399   1.157       .  T
C1382      C1383   1.412       .  A
C1382      C1387   1.451       .  S
C1383      C1384   1.416       .  A
C1383      C1389   1.450       .  S
C1384      C1385   1.419       .  A
C1385      C1386   1.411       .  A
C1385      C1388   1.451       .  S
C1386      C1390   1.451       .  S
C1387      N1394   1.157       .  T
C1388      N1395   1.157       .  T
C1389      N1393   1.157       .  T
C1390      N1396   1.157       .  T
C1391      N1400   1.157       .  T
C1392      N1398   1.157       .  T
C1401      C1402   1.412       .  A
C1401      C1406   1.413       .  A
C1401      C1419   1.451       .  S
C1402      C1403   1.409       .  A
C1402      C1407   1.500       .  S
C1403      C1404   1.411       .  A
C1403      C1408   1.451       .  S
C1404      C1405   1.420       .  A
C1404      C1420   1.452       .  S
C1405      C1406   1.418       .  A
C1406      C1409   1.451       .  S
C1407      C1410   1.411       .  A
C1407      C1414   1.410       .  A
C1408      N1425   1.157       .  T
C1409      N1427   1.158       .  T
C1410      C1411   1.411       .  A
C1410      C1415   1.451       .  S
C1411      C1412   1.416       .  A
C1411      C1417   1.450       .  S
C1412      C1413   1.415       .  A
C1413      C1414   1.412       .  A
C1413      C1416   1.448       .  S
C1414      C1418   1.450       .  S
C1415      N1422   1.157       .  T
C1416      N1423   1.157       .  T
C1417      N1421   1.157       .  T
C1418      N1424   1.157       .  T
C1419      N1428   1.157       .  T
C1420      N1426   1.157       .  T
C1429      C1430   1.410       .  A
C1429      C1434   1.413       .  A
C1429      C1447   1.451       .  S
C1430      C1431   1.411       .  A
C1430      C1435   1.499       .  S
C1431      C1432   1.410       .  A
C1431      C1436   1.451       .  S
C1432      C1433   1.417       .  A
C1432      C1448   1.452       .  S
C1433      C1434   1.417       .  A
C1434      C1437   1.450       .  S
C1435      C1438   1.410       .  A
C1435      C1442   1.411       .  A
C1436      N1453   1.157       .  T
C1437      N1455   1.157       .  T
C1438      C1439   1.412       .  A
C1438      C1443   1.450       .  S
C1439      C1440   1.416       .  A
C1439      C1445   1.451       .  S
C1440      C1441   1.413       .  A
C1441      C1442   1.410       .  A
C1441      C1444   1.448       .  S
C1442      C1446   1.451       .  S
C1443      N1450   1.157       .  T
C1444      N1451   1.157       .  T
C1445      N1449   1.157       .  T
C1446      N1452   1.157       .  T
C1447      N1456   1.157       .  T
C1448      N1454   1.157       .  T
C1457      C1458   1.410       .  A
C1457      C1462   1.412       .  A
C1457      C1475   1.452       .  S
C1458      C1459   1.411       .  A
C1458      C1463   1.499       .  S
C1459      C1460   1.411       .  A
C1459      C1464   1.451       .  S
C1460      C1461   1.417       .  A
C1460      C1476   1.451       .  S
C1461      C1462   1.420       .  A
C1462      C1465   1.451       .  S
C1463      C1466   1.412       .  A
C1463      C1470   1.412       .  A
C1464      N1481   1.157       .  T
C1465      N1483   1.158       .  T
C1466      C1467   1.411       .  A
C1466      C1471   1.451       .  S
C1467      C1468   1.413       .  A
C1467      C1473   1.449       .  S
C1468      C1469   1.415       .  A
C1469      C1470   1.410       .  A
C1469      C1472   1.451       .  S
C1470      C1474   1.451       .  S
C1471      N1478   1.157       .  T
C1472      N1479   1.157       .  T
C1473      N1477   1.157       .  T
C1474      N1480   1.157       .  T
C1475      N1484   1.157       .  T
C1476      N1482   1.157       .  T
C1485      C1486   1.409       .  A
C1485      C1490   1.410       .  A
C1485      C1503   1.452       .  S
C1486      C1487   1.411       .  A
C1486      C1491   1.498       .  S
C1487      C1488   1.412       .  A
C1487      C1492   1.451       .  S
C1488      C1489   1.418       .  A
C1488      C1504   1.451       .  S
C1489      C1490   1.419       .  A
C1490      C1493   1.452       .  S
C1491      C1494   1.411       .  A
C1491      C1498   1.411       .  A
C1492      N1509   1.157       .  T
C1493      N1511   1.157       .  T
C1494      C1495   1.413       .  A
C1494      C1499   1.450       .  S
C1495      C1496   1.414       .  A
C1495      C1501   1.448       .  S
C1496      C1497   1.417       .  A
C1497      C1498   1.408       .  A
C1497      C1500   1.452       .  S
C1498      C1502   1.452       .  S
C1499      N1506   1.157       .  T
C1500      N1507   1.157       .  T
C1501      N1505   1.157       .  T
C1502      N1508   1.157       .  T
C1503      N1512   1.157       .  T
C1504      N1510   1.157       .  T
C1513      C1514   1.410       .  A
C1513      C1518   1.409       .  A
C1513      C1531   1.451       .  S
C1514      C1515   1.408       .  A
C1514      C1519   1.491       .  S
C1515      C1516   1.408       .  A
C1515      C1520   1.450       .  S
C1516      C1517   1.414       .  A
C1516      C1532   1.451       .  S
C1517      C1518   1.413       .  A
C1518      C1521   1.449       .  S
C1519      C1522   1.408       .  A
C1519      C1526   1.409       .  A
C1520      N1537   1.157       .  T
C1521      N1539   1.157       .  T
C1522      C1523   1.410       .  A
C1522      C1527   1.451       .  S
C1523      C1524   1.418       .  A
C1523      C1529   1.451       .  S
C1524      C1525   1.414       .  A
C1525      C1526   1.408       .  A
C1525      C1528   1.451       .  S
C1526      C1530   1.451       .  S
C1527      N1534   1.157       .  T
C1528      N1535   1.157       .  T
C1529      N1533   1.157       .  T
C1530      N1536   1.157       .  T
C1531      N1540   1.157       .  T
C1532      N1538   1.157       .  T
C1541      C1542   1.410       .  A
C1541      C1546   1.410       .  A
C1541      C1559   1.452       .  S
C1542      C1543   1.407       .  A
C1542      C1547   1.494       .  S
C1543      C1544   1.412       .  A
C1543      C1548   1.451       .  S
C1544      C1545   1.421       .  A
C1544      C1560   1.451       .  S
C1545      C1546   1.416       .  A
C1546      C1549   1.451       .  S
C1547      C1550   1.410       .  A
C1547      C1554   1.409       .  A
C1548      N1565   1.157       .  T
C1549      N1567   1.157       .  T
C1550      C1551   1.409       .  A
C1550      C1555   1.451       .  S
C1551      C1552   1.415       .  A
C1551      C1557   1.451       .  S
C1552      C1553   1.413       .  A
C1553      C1554   1.409       .  A
C1553      C1556   1.449       .  S
C1554      C1558   1.450       .  S
C1555      N1562   1.157       .  T
C1556      N1563   1.157       .  T
C1557      N1561   1.157       .  T
C1558      N1564   1.157       .  T
C1559      N1568   1.157       .  T
C1560      N1566   1.157       .  T
C1569      C1570   1.410       .  A
C1569      C1574   1.409       .  A
C1569      C1587   1.451       .  S
C1570      C1571   1.408       .  A
C1570      C1575   1.492       .  S
C1571      C1572   1.408       .  A
C1571      C1576   1.451       .  S
C1572      C1573   1.413       .  A
C1572      C1588   1.449       .  S
C1573      C1574   1.415       .  A
C1574      C1577   1.451       .  S
C1575      C1578   1.409       .  A
C1575      C1582   1.407       .  A
C1576      N1593   1.157       .  T
C1577      N1595   1.157       .  T
C1578      C1579   1.411       .  A
C1578      C1583   1.451       .  S
C1579      C1580   1.419       .  A
C1579      C1585   1.451       .  S
C1580      C1581   1.420       .  A
C1581      C1582   1.410       .  A
C1581      C1584   1.450       .  S
C1582      C1586   1.452       .  S
C1583      N1590   1.157       .  T
C1584      N1591   1.157       .  T
C1585      N1589   1.157       .  T
C1586      N1592   1.157       .  T
C1587      N1596   1.157       .  T
C1588      N1594   1.157       .  T
C1597      C1598   1.408       .  A
C1597      C1602   1.409       .  A
C1597      C1615   1.452       .  S
C1598      C1599   1.410       .  A
C1598      C1603   1.492       .  S
C1599      C1600   1.410       .  A
C1599      C1604   1.451       .  S
C1600      C1601   1.416       .  A
C1600      C1616   1.451       .  S
C1601      C1602   1.418       .  A
C1602      C1605   1.451       .  S
C1603      C1606   1.409       .  A
C1603      C1610   1.409       .  A
C1604      N1621   1.157       .  T
C1605      N1623   1.157       .  T
C1606      C1607   1.410       .  A
C1606      C1611   1.451       .  S
C1607      C1608   1.414       .  A
C1607      C1613   1.448       .  S
C1608      C1609   1.414       .  A
C1609      C1610   1.407       .  A
C1609      C1612   1.451       .  S
C1610      C1614   1.451       .  S
C1611      N1618   1.157       .  T
C1612      N1619   1.157       .  T
C1613      N1617   1.157       .  T
C1614      N1620   1.157       .  T
C1615      N1624   1.157       .  T
C1616      N1622   1.157       .  T
C1625      C1626   1.408       .  A
C1625      C1630   1.410       .  A
C1625      C1643   1.453       .  S
C1626      C1627   1.410       .  A
C1626      C1631   1.497       .  S
C1627      C1628   1.413       .  A
C1627      C1632   1.450       .  S
C1628      C1629   1.419       .  A
C1628      C1644   1.451       .  S
C1629      C1630   1.422       .  A
C1630      C1633   1.450       .  S
C1631      C1634   1.410       .  A
C1631      C1638   1.411       .  A
C1632      N1649   1.157       .  T
C1633      N1651   1.157       .  T
C1634      C1635   1.412       .  A
C1634      C1639   1.450       .  S
C1635      C1636   1.414       .  A
C1635      C1641   1.449       .  S
C1636      C1637   1.417       .  A
C1637      C1638   1.408       .  A
C1637      C1640   1.453       .  S
C1638      C1642   1.452       .  S
C1639      N1646   1.157       .  T
C1640      N1647   1.157       .  T
C1641      N1645   1.157       .  T
C1642      N1648   1.157       .  T
C1643      N1652   1.157       .  T
C1644      N1650   1.157       .  T
C1653      C1654   1.407       .  A
C1653      C1658   1.413       .  A
C1653      C1671   1.452       .  S
C1654      C1655   1.411       .  A
C1654      C1659   1.500       .  S
C1655      C1656   1.414       .  A
C1655      C1660   1.451       .  S
C1656      C1657   1.418       .  A
C1657      C1658   1.423       .  A
C1658      C1661   1.451       .  S
C1659      C1662   1.410       .  A
C1659      C1666   1.409       .  A
C1661      N1679   1.157       .  T
C1662      C1663   1.413       .  A
C1662      C1667   1.450       .  S
C1663      C1664   1.415       .  A
C1663      C1669   1.449       .  S
C1664      C1665   1.419       .  A
C1665      C1666   1.410       .  A
C1665      C1668   1.452       .  S
C1666      C1670   1.451       .  S
C1667      N1674   1.157       .  T
C1668      N1675   1.157       .  T
C1669      N1673   1.157       .  T
C1670      N1676   1.157       .  T
C1671      N1680   1.157       .  T
C1672      N1678   1.157       .  T
C1681      C1682   1.409       .  A
C1681      C1686   1.409       .  A
C1681      C1699   1.452       .  S
C1682      C1683   1.407       .  A
C1682      C1687   1.490       .  S
C1683      C1684   1.408       .  A
C1683      C1688   1.450       .  S
C1684      C1685   1.418       .  A
C1684      C1700   1.451       .  S
C1685      C1686   1.418       .  A
C1686      C1689   1.451       .  S
C1687      C1690   1.408       .  A
C1687      C1694   1.408       .  A
C1688      N1705   1.157       .  T
C1690      C1691   1.409       .  A
C1690      C1695   1.451       .  S
C1691      C1692   1.415       .  A
C1691      C1697   1.450       .  S
C1692      C1693   1.414       .  A
C1693      C1694   1.407       .  A
C1693      C1696   1.449       .  S
C1694      C1698   1.452       .  S
C1695      N1702   1.157       .  T
C1696      N1703   1.157       .  T
C1697      N1701   1.157       .  T
C1698      N1704   1.157       .  T
C1699      N1708   1.157       .  T
C1700      N1706   1.157       .  T
C1709      C1710   1.411       .  A
C1709      C1714   1.412       .  A
C1709      C1727   1.452       .  S
C1710      C1711   1.409       .  A
C1710      C1715   1.500       .  S
C1711      C1712   1.414       .  A
C1711      C1716   1.450       .  S
C1712      C1713   1.420       .  A
C1712      C1728   1.451       .  S
C1713      C1714   1.419       .  A
C1714      C1717   1.451       .  S
C1715      C1718   1.409       .  A
C1715      C1722   1.410       .  A
C1716      N1733   1.157       .  T
C1717      N1735   1.157       .  T
C1718      C1719   1.412       .  A
C1718      C1723   1.450       .  S
C1719      C1720   1.418       .  A
C1719      C1725   1.451       .  S
C1720      C1721   1.415       .  A
C1721      C1722   1.412       .  A
C1721      C1724   1.448       .  S
C1722      C1726   1.451       .  S
C1723      N1730   1.157       .  T
C1724      N1731   1.157       .  T
C1725      N1729   1.157       .  T
C1726      N1732   1.157       .  T
C1727      N1736   1.157       .  T
C1728      N1734   1.157       .  T
C1737      C1738   1.409       .  A
C1737      C1742   1.410       .  A
C1737      C1755   1.450       .  S
C1738      C1739   1.410       .  A
C1738      C1743   1.494       .  S
C1739      C1740   1.410       .  A
C1739      C1744   1.451       .  S
C1740      C1741   1.412       .  A
C1740      C1756   1.449       .  S
C1741      C1742   1.414       .  A
C1742      C1745   1.451       .  S
C1743      C1746   1.411       .  A
C1743      C1750   1.409       .  A
C1744      N1761   1.157       .  T
C1745      N1763   1.157       .  T
C1746      C1747   1.410       .  A
C1746      C1751   1.451       .  S
C1747      C1748   1.414       .  A
C1747      C1753   1.451       .  S
C1748      C1749   1.415       .  A
C1749      C1750   1.410       .  A
C1749      C1752   1.451       .  S
C1750      C1754   1.450       .  S
C1751      N1758   1.157       .  T
C1752      N1759   1.157       .  T
C1753      N1757   1.158       .  T
C1754      N1760   1.157       .  T
C1755      N1764   1.157       .  T
C1756      N1762   1.157       .  T
C1765      C1766   1.413       .  A
C1765      C1770   1.408       .  A
C1765      C1783   1.452       .  S
C1766      C1767   1.411       .  A
C1766      C1771   1.497       .  S
C1767      C1768   1.412       .  A
C1767      C1772   1.450       .  S
C1768      C1769   1.414       .  A
C1768      C1784   1.451       .  S
C1769      C1770   1.412       .  A
C1770      C1773   1.452       .  S
C1771      C1774   1.410       .  A
C1771      C1778   1.412       .  A
C1772      N1789   1.157       .  T
C1773      N1791   1.157       .  T
C1774      C1775   1.410       .  A
C1774      C1779   1.450       .  S
C1775      C1776   1.417       .  A
C1775      C1781   1.451       .  S
C1776      C1777   1.412       .  A
C1777      C1778   1.409       .  A
C1777      C1780   1.449       .  S
C1778      C1782   1.451       .  S
C1779      N1786   1.157       .  T
C1780      N1787   1.157       .  T
C1781      N1785   1.157       .  T
C1782      N1788   1.157       .  T
C1783      N1792   1.157       .  T
C1784      N1790   1.157       .  T
C1793      C1794   1.410       .  A
C1793      C1798   1.413       .  A
C1793      C1811   1.451       .  S
C1794      C1795   1.411       .  A
C1794      C1799   1.503       .  S
C1795      C1796   1.414       .  A
C1795      C1800   1.450       .  S
C1796      C1797   1.415       .  A
C1796      C1812   1.448       .  S
C1797      C1798   1.419       .  A
C1798      C1801   1.451       .  S
C1799      C1802   1.410       .  A
C1799      C1806   1.410       .  A
C1800      N1817   1.157       .  T
C1801      N1819   1.157       .  T
C1802      C1803   1.414       .  A
C1802      C1807   1.451       .  S
C1803      C1804   1.420       .  A
C1803      C1809   1.451       .  S
C1804      C1805   1.420       .  A
C1805      C1806   1.415       .  A
C1805      C1808   1.450       .  S
C1806      C1810   1.451       .  S
C1807      N1814   1.157       .  T
C1808      N1815   1.157       .  T
C1810      N1816   1.157       .  T
C1811      N1820   1.157       .  T
C1812      N1818   1.157       .  T
C1821      C1822   1.408       .  A
C1821      C1826   1.412       .  A
C1821      C1839   1.452       .  S
C1822      C1823   1.407       .  A
C1822      C1827   1.492       .  S
C1823      C1824   1.408       .  A
C1823      C1828   1.451       .  S
C1824      C1825   1.420       .  A
C1825      C1826   1.422       .  A
C1826      C1829   1.451       .  S
C1827      C1830   1.410       .  A
C1827      C1834   1.409       .  A
C1828      N1845   1.157   1_565  T
C1829      N1847   1.158       .  T
C1830      C1831   1.408       .  A
C1830      C1835   1.451       .  S
C1831      C1832   1.416       .  A
C1831      C1837   1.452       .  S
C1832      C1833   1.412       .  A
C1833      C1834   1.409       .  A
C1833      C1836   1.448       .  S
C1834      C1838   1.450       .  S
C1835      N1842   1.157       .  T
C1836      N1843   1.157       .  T
C1837      N1841   1.157       .  T
C1838      N1844   1.157       .  T
C1839      N1848   1.157       .  T
C1840      N1846   1.157       .  T
C1849      C1850   1.413       .  A
C1849      C1854   1.409       .  A
C1849      C1867   1.451       .  S
C1850      C1851   1.413       .  A
C1850      C1855   1.497       .  S
C1851      C1852   1.412       .  A
C1851      C1856   1.451       .  S
C1852      C1853   1.412       .  A
C1852      C1868   1.450       .  S
C1853      C1854   1.411       .  A
C1854      C1857   1.452       .  S
C1855      C1858   1.411       .  A
C1855      C1862   1.412       .  A
C1856      N1873   1.157       .  T
C1857      N1875   1.157       .  T
C1858      C1859   1.408       .  A
C1858      C1863   1.451       .  S
C1859      C1860   1.414       .  A
C1859      C1865   1.451       .  S
C1860      C1861   1.413       .  A
C1861      C1862   1.411       .  A
C1861      C1864   1.449       .  S
C1862      C1866   1.451       .  S
C1863      N1870   1.157       .  T
C1864      N1871   1.157       .  T
C1865      N1869   1.157       .  T
C1866      N1872   1.157       .  T
C1867      N1876   1.157       .  T
C1868      N1874   1.157       .  T
C1877      C1878   1.412       .  A
C1877      C1882   1.410       .  A
C1877      C1895   1.451       .  S
C1878      C1879   1.410       .  A
C1878      C1883   1.495       .  S
C1879      C1880   1.411       .  A
C1879      C1884   1.450       .  S
C1880      C1881   1.413       .  A
C1880      C1896   1.451       .  S
C1881      C1882   1.411       .  A
C1882      C1885   1.450       .  S
C1883      C1886   1.408       .  A
C1883      C1890   1.411       .  A
C1884      N1901   1.157       .  T
C1885      N1903   1.157       .  T
C1886      C1887   1.409       .  A
C1886      C1891   1.450       .  S
C1887      C1888   1.416       .  A
C1887      C1893   1.452       .  S
C1888      C1889   1.414       .  A
C1889      C1890   1.412       .  A
C1889      C1892   1.448       .  S
C1890      C1894   1.451       .  S
C1891      N1898   1.157       .  T
C1892      N1899   1.157       .  T
C1893      N1897   1.157       .  T
C1894      N1900   1.157       .  T
C1895      N1904   1.157       .  T
C1896      N1902   1.157       .  T
C1905      C1906   1.408       .  A
C1905      C1910   1.411       .  A
C1905      C1923   1.451       .  S
C1906      C1907   1.410       .  A
C1906      C1911   1.494       .  S
C1907      C1908   1.410       .  A
C1907      C1912   1.452       .  S
C1908      C1909   1.417       .  A
C1908      C1924   1.451       .  S
C1909      C1910   1.418       .  A
C1910      C1913   1.451       .  S
C1911      C1914   1.410       .  A
C1911      C1918   1.408       .  A
C1912      N1929   1.157       .  T
C1913      N1931   1.157       .  T
C1914      C1915   1.412       .  A
C1914      C1919   1.451       .  S
C1915      C1916   1.414       .  A
C1915      C1921   1.449       .  S
C1916      C1917   1.419       .  A
C1917      C1918   1.408       .  A
C1917      C1920   1.452       .  S
C1918      C1922   1.452       .  S
C1919      N1926   1.157       .  T
C1920      N1927   1.157       .  T
C1921      N1925   1.157       .  T
C1922      N1928   1.157       .  T
C1923      N1932   1.157       .  T
C1924      N1930   1.157       .  T
C1933      C1934   1.411       .  A
C1933      C1938   1.413       .  A
C1933      C1951   1.451       .  S
C1934      C1935   1.407       .  A
C1934      C1939   1.498       .  S
C1935      C1936   1.412       .  A
C1935      C1940   1.452       .  S
C1936      C1937   1.423       .  A
C1936      C1952   1.451       .  S
C1937      C1938   1.419       .  A
C1938      C1941   1.451       .  S
C1939      C1942   1.411       .  A
C1939      C1946   1.409       .  A
C1940      N1957   1.157       .  T
C1941      N1959   1.157       .  T
C1942      C1943   1.413       .  A
C1942      C1947   1.450       .  S
C1943      C1944   1.415       .  A
C1943      C1949   1.448       .  S
C1944      C1945   1.416       .  A
C1945      C1946   1.409       .  A
C1945      C1948   1.452       .  S
C1946      C1950   1.451       .  S
C1947      N1954   1.157       .  T
C1948      N1955   1.157       .  T
C1949      N1953   1.157       .  T
C1950      N1956   1.157       .  T
C1951      N1960   1.157       .  T
C1952      N1958   1.157       .  T
C1961      C1962   1.408       .  A
C1961      C1966   1.411       .  A
C1961      C1979   1.450       .  S
C1962      C1963   1.410       .  A
C1962      C1967   1.494       .  S
C1963      C1964   1.410       .  A
C1963      C1968   1.451       .  S
C1964      C1965   1.417       .  A
C1964      C1980   1.451       .  S
C1965      C1966   1.419       .  A
C1966      C1969   1.451       .  S
C1967      C1970   1.410       .  A
C1967      C1974   1.408       .  A
C1968      N1985   1.157       .  T
C1969      N1987   1.157       .  T
C1970      C1971   1.412       .  A
C1970      C1975   1.451       .  S
C1971      C1972   1.415       .  A
C1971      C1977   1.449       .  S
C1972      C1973   1.415       .  A
C1973      C1974   1.409       .  A
C1973      C1976   1.450       .  S
C1974      C1978   1.451       .  S
C1975      N1982   1.157       .  T
C1976      N1983   1.157       .  T
C1977      N1981   1.157       .  T
C1978      N1984   1.157       .  T
C1979      N1988   1.157       .  T
C1980      N1986   1.157       .  T
C1989      C1990   1.410       .  A
C1989      C1994   1.413       .  A
C1989      C2007   1.451       .  S
C1990      C1991   1.411       .  A
C1990      C1995   1.498       .  S
C1991      C1992   1.409       .  A
C1991      C1996   1.452       .  S
C1992      C1993   1.418       .  A
C1992      C2008   1.452       .  S
C1993      C1994   1.418       .  A
C1994      C1997   1.451       .  S
C1995      C1998   1.411       .  A
C1995      C2002   1.411       .  A
C1996      N2013   1.157       .  T
C1997      N2015   1.157       .  T
C1998      C1999   1.409       .  A
C1998      C2003   1.451       .  S
C1999      C2000   1.412       .  A
C1999      C2005   1.449       .  S
C2000      C2001   1.416       .  A
C2001      C2002   1.411       .  A
C2001      C2004   1.451       .  S
C2002      C2006   1.451       .  S
C2003      N2010   1.157       .  T
C2004      N2011   1.158       .  T
C2005      N2009   1.157       .  T
C2006      N2012   1.157       .  T
C2007      N2016   1.157       .  T
C2008      N2014   1.157       .  T
C2017      C2018   1.408       .  A
C2017      C2022   1.408       .  A
C2017      C2035   1.451       .  S
C2018      C2019   1.410       .  A
C2018      C2023   1.492       .  S
C2019      C2020   1.410       .  A
C2019      C2024   1.451       .  S
C2020      C2021   1.412       .  A
C2020      C2036   1.448       .  S
C2021      C2022   1.415       .  A
C2022      C2025   1.451       .  S
C2023      C2026   1.410       .  A
C2023      C2030   1.409       .  A
C2024      N2041   1.157       .  T
C2025      N2043   1.157       .  T
C2026      C2027   1.409       .  A
C2026      C2031   1.451       .  S
C2027      C2028   1.414       .  A
C2027      C2033   1.452       .  S
C2028      C2029   1.413       .  A
C2029      C2030   1.410       .  A
C2029      C2032   1.451       .  S
C2030      C2034   1.450       .  S
C2031      N2038   1.157       .  T
C2032      N2039   1.157       .  T
C2033      N2037   1.158       .  T
C2034      N2040   1.157       .  T
C2035      N2044   1.157       .  T
C2036      N2042   1.157       .  T
C2045      C2046   1.411       .  A
C2045      C2050   1.411       .  A
C2045      C2063   1.451       .  S
C2046      C2047   1.409       .  A
C2046      C2051   1.495       .  S
C2047      C2048   1.412       .  A
C2047      C2052   1.450       .  S
C2048      C2049   1.414       .  A
C2048      C2064   1.450       .  S
C2049      C2050   1.413       .  A
C2050      C2053   1.451       .  S
C2051      C2054   1.408       .  A
C2051      C2058   1.411       .  A
C2052      N2069   1.157       .  T
C2053      N2071   1.157       .  T
C2054      C2055   1.410       .  A
C2054      C2059   1.450       .  S
C2055      C2056   1.417       .  A
C2055      C2061   1.452       .  S
C2056      C2057   1.412       .  A
C2057      C2058   1.410       .  A
C2057      C2060   1.449       .  S
C2058      C2062   1.450       .  S
C2059      N2066   1.157       .  T
C2060      N2067   1.157       .  T
C2061      N2065   1.157       .  T
C2062      N2068   1.157       .  T
C2063      N2072   1.157       .  T
C2064      N2070   1.157       .  T
C2073      C2074   1.409       .  A
C2073      C2078   1.411       .  A
C2073      C2091   1.450       .  S
C2074      C2075   1.411       .  A
C2074      C2079   1.500       .  S
C2075      C2076   1.415       .  A
C2075      C2080   1.450       .  S
C2076      C2077   1.415       .  A
C2076      C2092   1.448       .  S
C2077      C2078   1.416       .  A
C2078      C2081   1.451       .  S
C2079      C2082   1.413       .  A
C2079      C2086   1.410       .  A
C2080      N2097   1.157       .  T
C2081      N2099   1.157       .  T
C2082      C2083   1.413       .  A
C2082      C2087   1.451       .  S
C2083      C2084   1.414       .  A
C2083      C2089   1.451       .  S
C2084      C2085   1.415       .  A
C2085      C2086   1.413       .  A
C2085      C2088   1.451       .  S
C2086      C2090   1.450       .  S
C2087      N2094   1.157       .  T
C2088      N2095   1.157       .  T
C2089      N2093   1.157       .  T
C2090      N2096   1.157       .  T
C2091      N2100   1.157       .  T
C2092      N2098   1.157       .  T
C2101      C2102   1.410       .  A
C2101      C2106   1.409       .  A
C2101      C2119   1.451       .  S
C2102      C2103   1.409       .  A
C2102      C2107   1.492       .  S
C2103      C2104   1.409       .  A
C2103      C2108   1.450       .  S
C2104      C2105   1.414       .  A
C2104      C2120   1.451       .  S
C2105      C2106   1.412       .  A
C2106      C2109   1.448       .  S
C2107      C2110   1.409       .  A
C2107      C2114   1.411       .  A
C2108      N2125   1.157       .  T
C2109      N2127   1.157       .  T
C2110      C2111   1.410       .  A
C2110      C2115   1.450       .  S
C2111      C2112   1.415       .  A
C2111      C2117   1.451       .  S
C2112      C2113   1.412       .  A
C2113      C2114   1.409       .  A
C2113      C2116   1.450       .  S
C2114      C2118   1.452       .  S
C2115      N2122   1.157       .  T
C2116      N2123   1.157       .  T
C2117      N2121   1.157       .  T
C2118      N2124   1.157       .  T
C2119      N2128   1.157       .  T
C2120      N2126   1.157       .  T
