geometry optimzed in LAMMPS
_audit_creation_date              2020-11-30 
_audit_creation_method            'lammps2cif' 
_symmetry_space_group_name_H-M    'P1' 
_symmetry_Int_Tables_number       1 
_symmetry_cell_setting            triclinic 
loop_ 
_symmetry_equiv_pos_as_xyz 
  x,y,z 
_cell_length_a                    51.97017696 
_cell_length_b                    51.15179748195497 
_cell_length_c                    40.4183847040508 
_cell_angle_alpha                 89.59368002208733 
_cell_angle_beta                  89.99002876085056 
_cell_angle_gamma                 90.12515893091076 
loop_ 
_atom_site_label 
_atom_site_type_symbol 
_atom_site_fract_x 
_atom_site_fract_y 
_atom_site_fract_z 
_atom_site_charge 
O1          O  0.26340125  0.20421286  0.40368558    -0.86200
O2          O  0.26337593  0.20566743  0.59189513    -0.86400
O3          O  0.30871440  0.17814739  0.49827405    -0.88000
O4          O  0.22521892  0.17328058  0.49970175    -0.86800
O5          O  0.19261741  0.20326609  0.49848022    -0.86400
O6          O  0.33838061  0.21102111  0.49547243    -0.87700
O7          O  0.26634304  0.17480602  0.55108438    -0.86200
O8          O  0.26646405  0.17354121  0.44532907    -0.85800
Zr9        Zr  0.26577218  0.19675792  0.49748200     2.84300
O10         O  0.23873402  0.22153660  0.53104027    -1.07800
O11         O  0.29001122  0.22364236  0.46228604    -1.08500
C12         C  0.26475207  0.18027539  0.41458048     1.06900
C13         C  0.26471634  0.18171817  0.58168466     1.06900
C14         C  0.33205290  0.18668475  0.49712991     1.09800
C15         C  0.20123468  0.17964316  0.49957507     1.07600
H16         H  0.30173744  0.21371549  0.54419364     0.33200
O17         O  0.29042600  0.22419479  0.53063937    -1.28700
H18         H  0.22796489  0.20948965  0.45012309     0.32900
O19         O  0.23842371  0.22114137  0.46319207    -1.30400
O20         O  0.26052989  0.29209925  0.59128582    -0.86200
O21         O  0.25998495  0.29202200  0.40107962    -0.87700
O22         O  0.33671956  0.25171130  0.54812958    -0.86300
O23         O  0.19060315  0.24478604  0.55027371    -0.86300
O24         O  0.18971636  0.24441080  0.44398436    -0.86000
O25         O  0.33593635  0.25216340  0.44178416    -0.85800
O26         O  0.30189888  0.32445450  0.49435744    -0.86200
O27         O  0.21878404  0.32126471  0.49568584    -0.88100
O28         O  0.33428990  0.29420907  0.49471405    -0.86700
O29         O  0.18909252  0.28808441  0.49611398    -0.85900
O30         O  0.30674487  0.24995592  0.58986575    -0.86300
O31         O  0.30508868  0.24872832  0.40128667    -0.86000
O32         O  0.21973408  0.24712751  0.40230886    -0.85700
O33         O  0.22065086  0.24660860  0.59158318    -0.86100
O34         O  0.26041830  0.32280689  0.54946981    -0.86400
O35         O  0.25766492  0.32265656  0.44234920    -0.87700
Zr36       Zr  0.26337639  0.24900782  0.56479813     2.83100
Zr37       Zr  0.26265669  0.24846849  0.42813502     2.83500
Zr38       Zr  0.31444288  0.25147101  0.49543779     2.84100
Zr39       Zr  0.21190039  0.24645878  0.49686839     2.83400
Zr40       Zr  0.26103606  0.30109123  0.49591185     2.84200
O41         O  0.23623887  0.27367813  0.46249308    -1.08300
O42         O  0.28815155  0.27646015  0.53007197    -1.07800
C43         C  0.26010824  0.31597881  0.58033447     1.06900
C44         C  0.25784417  0.31586763  0.41164824     1.09500
C45         C  0.33025000  0.25078710  0.57894209     1.07100
C46         C  0.19707858  0.24524101  0.58110724     1.07400
C47         C  0.19632446  0.24520252  0.41319987     1.07000
C48         C  0.32872313  0.25041212  0.41128816     1.06600
C49         C  0.32586032  0.31786032  0.49404750     1.07000
C50         C  0.19547822  0.31251548  0.49596367     1.06500
H51         H  0.29770911  0.28779613  0.44740989     0.33200
O52         O  0.28756612  0.27638340  0.46133713    -1.29400
H53         H  0.22505823  0.28446632  0.54380443     0.33200
O54         O  0.23637879  0.27399457  0.53038675    -1.30700
N55         N  0.47353249  0.00334390  0.51702782    -0.36300
N56         N  0.01624562  0.03990807  0.51831119    -0.56900
N57         N  0.05221326  0.99664375  0.51449861    -0.36300
N58         N  0.01046160  0.45947306  0.49866573    -0.56900
C59         C  0.46075389  0.02611973  0.51273082     0.27300
C60         C  0.45796295  0.48185603  0.49684668     0.27300
C61         C  0.06830655  0.01695196  0.50886991     0.27300
C62         C  0.06487939  0.47505770  0.49099001     0.27300
C63         C  0.49678546  0.05705561  0.52414529     0.35900
C64         C  0.03833219  0.05341123  0.52209839     0.35900
C65         C  0.48899897  0.44531869  0.50398360     0.35900
C66         C  0.03031956  0.44277502  0.50268583     0.35900
C67         C  0.43587131  0.02098155  0.50210141    -0.21600
C68         C  0.43429934  0.49163449  0.48689220    -0.21600
C69         C  0.09178234  0.00776993  0.49751063    -0.21600
C70         C  0.08874490  0.48166747  0.47800688    -0.21600
C71         C  0.50657214  0.08160844  0.53130882    -0.22600
C72         C  0.03309427  0.07926941  0.52962560    -0.22600
C73         C  0.49510594  0.41946014  0.51077099    -0.22600
C74         C  0.02128092  0.41795651  0.51033781    -0.22600
C75         C  0.47058934  0.05142763  0.51884302    -0.18000
C76         C  0.46386874  0.45507527  0.49983116    -0.18000
C77         C  0.05632894  0.44928718  0.49695817    -0.18000
C78         C  0.06301358  0.04342099  0.51548094    -0.18000
H79         H  0.42077321  0.03494524  0.49684007     0.14900
H80         H  0.41756779  0.48066726  0.47906339     0.14900
H81         H  0.10876595  0.01906124  0.49129956     0.14900
H82         H  0.10361873  0.46852204  0.46955231     0.14900
H83         H  0.49590668  0.09942438  0.53556573     0.13200
H84         H  0.04674218  0.09502896  0.53311018     0.13200
H85         H  0.48194397  0.40337515  0.51515090     0.13200
H86         H  0.03248353  0.40040872  0.51436311     0.13200
H87         H  0.49136078  0.00104007  0.52817260     0.26500
H88         H  0.03469306  0.99742704  0.52673733     0.26500
O89         O  0.48760551  0.45167191  0.90883668    -0.86200
O90         O  0.48268231  0.45606009  0.09758959    -0.86400
O91         O  0.02365492  0.42331088  0.00656378    -0.88000
O92         O  0.44151437  0.42361009  0.00243016    -0.86800
O93         O  0.41042664  0.45535767  0.00172396    -0.86400
O94         O  0.05487165  0.45488925  0.00509537    -0.87700
O95         O  0.48176972  0.42459982  0.05729055    -0.86200
O96         O  0.48544988  0.42179961  0.95147353    -0.85800
Zr97       Zr  0.48285292  0.44546350  0.00310247     2.84300
O98         O  0.45624125  0.47190252  0.03518637    -1.07800
O99         O  0.00952670  0.47050363  0.96878314    -1.08500
C100        C  0.48734901  0.42792911  0.92055274     1.06900
C101        C  0.48237679  0.43198805  0.08774119     1.06900
C102        C  0.04729994  0.43087386  0.00666381     1.09800
C103        C  0.41795587  0.43136096  0.00261799     1.07600
H104        H  0.01861909  0.46125596  0.05085693     0.33200
O105        O  0.00811393  0.47199095  0.03658611    -1.28700
H106        H  0.44768878  0.45925049  0.95305089     0.32900
O107        O  0.45813819  0.47060161  0.96652458    -1.30400
O108        O  0.48489249  0.04199007  0.09278254    -0.86200
O109        O  0.48624275  0.04039590  0.90456322    -0.87700
O110        O  0.05517972  0.49820517  0.05615244    -0.86300
O111        O  0.40949684  0.49975665  0.05133178    -0.86300
O112        O  0.41204323  0.49641789  0.94381178    -0.86000
O113        O  0.05746061  0.49551905  0.94946289    -0.85800
O114        O  0.02404699  0.07150914  0.00134398    -0.86200
O115        O  0.44054581  0.07049594  0.99721073    -0.85700
O116        O  0.05531426  0.04010585  0.00368108    -0.86700
O117        O  0.40942264  0.03888280  0.99476437    -0.85900
O118        O  0.02392881  0.49918123  0.09649669    -0.86300
O119        O  0.02874554  0.99607592  0.90661515    -0.86000
O120        O  0.44339912  0.99617760  0.90236080    -0.85700
O121        O  0.43855689  0.50154521  0.09379305    -0.86100
O122        O  0.48445482  0.07199450  0.05044898    -0.86400
O123        O  0.48385611  0.07141517  0.94527830    -0.87700
Zr124      Zr  0.48175878  0.49880787  0.06901250     2.83100
Zr125      Zr  0.48516534  0.49622994  0.93239921     2.83500
Zr126      Zr  0.03452590  0.49744058  0.00223543     2.84100
Zr127      Zr  0.43183174  0.49749078  0.99862524     2.83400
Zr128      Zr  0.48262373  0.04937015  0.99818667     2.84200
O129        O  0.45802090  0.02301437  0.96342902    -1.08300
O130        O  0.00792877  0.02382331  0.03347284    -1.07800
C131        C  0.48582666  0.06569356  0.08133837     1.06900
C132        C  0.48518151  0.06443585  0.91477714     1.09500
C133        C  0.04759666  0.49884668  0.08652887     1.07100
C134        C  0.41524757  0.50171699  0.08225965     1.07400
C135        C  0.41957055  0.99548906  0.91190151     1.07000
C136        C  0.05209141  0.99615072  0.91799134     1.06600
C137        C  0.04770065  0.06412266  0.00351448     1.07000
C138        C  0.41682483  0.06293210  0.99565525     1.06500
H139        H  0.02124539  0.03432074  0.95274550     0.33200
O140        O  0.01000368  0.02335557  0.96585254    -1.29400
H141        H  0.44510538  0.03551674  0.04461978     0.33200
O142        O  0.45599765  0.02410374  0.03192444    -1.30700
N143        N  0.19388435  0.24876034  0.00719296    -0.36300
N144        N  0.23259057  0.20859547  0.00080780    -0.56900
N145        N  0.27155388  0.24852858  0.00170867    -0.36300
N146        N  0.23296172  0.28875870  0.00645277    -0.56900
C147        C  0.17933606  0.22796336  0.99879556     0.27300
C148        C  0.17967895  0.27036279  0.00126153     0.27300
C149        C  0.28533101  0.22777219  0.99144409     0.27300
C150        C  0.28535722  0.27014349  0.99427791     0.27300
C151        C  0.21198044  0.19344830  0.00769524     0.35900
C152        C  0.25351800  0.19336881  0.00503846     0.35900
C153        C  0.21262871  0.30310938  0.01603668     0.35900
C154        C  0.25407332  0.30293241  0.01362898     0.35900
C155        C  0.15559533  0.23638617  0.98729322    -0.21600
C156        C  0.15586725  0.26325139  0.98866330    -0.21600
C157        C  0.30810204  0.23627866  0.97702652    -0.21600
C158        C  0.30805159  0.26314273  0.97865103    -0.21600
C159        C  0.21977186  0.16834646  0.01595476    -0.22600
C160        C  0.24619617  0.16828574  0.01422343    -0.22600
C161        C  0.22078758  0.32661399  0.02936629    -0.22600
C162        C  0.24721111  0.32649805  0.02783280    -0.22600
C163        C  0.18627032  0.20163647  0.00401480    -0.18000
C164        C  0.18690765  0.29597058  0.01007518    -0.18000
C165        C  0.27915798  0.29556886  0.00470996    -0.18000
C166        C  0.27887956  0.20149405  0.99809041    -0.18000
H167        H  0.13958909  0.22439912  0.97934936     0.14900
H168        H  0.14008401  0.27603919  0.98206953     0.14900
H169        H  0.32344005  0.22438043  0.96714772     0.14900
H170        H  0.32335239  0.27599784  0.97034391     0.14900
H171        H  0.20767335  0.15176183  0.02210060     0.13200
H172        H  0.25854811  0.15162218  0.01867415     0.13200
H173        H  0.20894360  0.34228805  0.03874640     0.13200
H174        H  0.25987915  0.34207146  0.03574502     0.13200
H175        H  0.21102376  0.24804141  0.02045036     0.26500
H176        H  0.25565415  0.24779650  0.01732818     0.26500
C177        C  0.03459578  0.24726615  0.27066128     0.86800
C178        C  0.03244272  0.22366821  0.24752112    -0.53400
C179        C  0.51115823  0.22350355  0.22765721     0.09700
C180        C  0.49327259  0.24718529  0.23342613     0.20700
C181        C  0.03187920  0.27142634  0.24829133    -0.54200
C182        C  0.51030095  0.27164652  0.22932038     0.09800
C183        C  0.50890382  0.24588378  0.29022998    -0.53700
C184        C  0.48740499  0.24586376  0.27065728     0.10400
H185        H  0.04632741  0.20783230  0.24774772     0.14900
H186        H  0.47589209  0.24776329  0.21751583     0.00600
H187        H  0.04543803  0.28762355  0.24854794     0.15200
H188        H  0.50716345  0.24446040  0.31685120     0.15000
C189        C  0.21005776  0.50207994  0.22524307     0.86800
C190        C  0.21391742  0.47677863  0.24538429    -0.53400
C191        C  0.23535101  0.47637682  0.26498872     0.09700
C192        C  0.25167821  0.50161438  0.26200517     0.20700
C193        C  0.21107600  0.02404192  0.24930970    -0.54200
C194        C  0.23293475  0.02408205  0.26818926     0.09800
C195        C  0.23549814  0.50502615  0.20560901    -0.53700
C196        C  0.25706262  0.50481076  0.22488091     0.10400
H197        H  0.20048959  0.46050292  0.24437651     0.14900
H198        H  0.26948226  0.50153844  0.27717936     0.00600
H199        H  0.19666646  0.03933447  0.25083366     0.15200
H200        H  0.23721453  0.50708329  0.17907443     0.15000
C201        C  0.03672838  0.24861927  0.72880452     0.86800
C202        C  0.03335507  0.27111701  0.75371845    -0.53400
C203        C  0.51043514  0.27089754  0.77080986     0.09700
C204        C  0.49267392  0.24777777  0.76109928     0.20700
C205        C  0.03238357  0.22392419  0.75001806    -0.54200
C206        C  0.50930768  0.22308404  0.76648216     0.09800
C207        C  0.51280118  0.25039184  0.70672285    -0.53700
C208        C  0.48978021  0.25022470  0.72307793     0.10400
H209        H  0.04753677  0.28607183  0.75853214     0.14900
H210        H  0.47413710  0.24710560  0.77472201     0.00600
H211        H  0.04629233  0.20816037  0.75187268     0.15200
H212        H  0.51415078  0.25135091  0.67992541     0.15000
C213        C  0.21181511  0.49763308  0.76814437     0.86800
C214        C  0.21627592  0.02271591  0.74459369    -0.53400
C215        C  0.23869264  0.02233188  0.72702300     0.09700
C216        C  0.25494731  0.49772599  0.73405344     0.20700
C217        C  0.21448708  0.47467224  0.74401746    -0.54200
C218        C  0.23707219  0.47421060  0.72677658     0.09800
C219        C  0.23648210  0.49649309  0.78936356    -0.53700
C220        C  0.25920790  0.49654611  0.77187229     0.10400
H221        H  0.20336600  0.03912506  0.74202473     0.14900
H222        H  0.27276910  0.49816404  0.71902348     0.00600
H223        H  0.20006628  0.45941292  0.74155014     0.15200
H224        H  0.23579863  0.49561685  0.81618980     0.15000
C225        C  0.09934084  0.02448752  0.14115435    -0.01700
C226        C  0.11223455  0.50139842  0.15206861     0.06900
C227        C  0.10171218  0.47719782  0.14299753    -0.07700
C228        C  0.07993793  0.47595784  0.12257800     0.04300
C229        C  0.06809018  0.49922285  0.11162361    -0.14900
C230        C  0.07735550  0.02329330  0.12117485    -0.08200
C231        C  0.13707411  0.50189108  0.17019867     0.05300
C232        C  0.13729686  0.49859185  0.20454048    -0.09400
C233        C  0.16050970  0.49864683  0.22227187     0.00300
C234        C  0.18447872  0.50206415  0.20565769     0.00100
C235        C  0.18305984  0.00449345  0.16985492    -0.12900
C236        C  0.15972471  0.00439984  0.15244029     0.00600
C237        C  0.15902472  0.49442412  0.25757193     0.39900
C238        C  0.16016309  0.00691558  0.11679378     0.36500
C239        C  0.10953065  0.04978773  0.14987636     0.36300
C240        C  0.07090606  0.45072220  0.11169131     0.37000
N241        N  0.15780637  0.49060365  0.28577473    -0.43800
N242        N  0.16033394  0.00885980  0.08824801    -0.44200
N243        N  0.06383221  0.43051613  0.10269965    -0.41600
N244        N  0.11755050  0.07014382  0.15682629    -0.43000
H245        H  0.06863853  0.04123273  0.11215486     0.13100
H246        H  0.11115773  0.45929583  0.15077732     0.09600
H247        H  0.11921826  0.49585115  0.21754552     0.10700
H248        H  0.20030051  0.00689420  0.15541936     0.16500
C249        C  0.37824653  0.50609003  0.16360357    -0.01700
C250        C  0.35264409  0.50927366  0.15278585     0.06900
C251        C  0.34704879  0.01060056  0.11686643    -0.07700
C252        C  0.36692681  0.00857861  0.09370802     0.04300
C253        C  0.39331801  0.50473660  0.10609967    -0.14900
C254        C  0.39822409  0.50382763  0.14040074    -0.08200
C255        C  0.33029182  0.50934856  0.17584817     0.05300
C256        C  0.31383721  0.03061666  0.17553166    -0.09400
C257        C  0.29054710  0.03002863  0.19301856     0.00300
C258        C  0.28318604  0.50761009  0.21062740     0.00100
C259        C  0.29958711  0.48592114  0.21078620    -0.12900
C260        C  0.32300632  0.48661365  0.19357608     0.00600
C261        C  0.27523780  0.05352126  0.19468886     0.39900
C262        C  0.33868335  0.46336839  0.19308109     0.36500
C263        C  0.38448873  0.50508119  0.19838043     0.36300
C264        C  0.35966676  0.01026269  0.05922547     0.37000
N265        N  0.26300026  0.07234045  0.19641789    -0.43800
N266        N  0.35157561  0.44495795  0.19274557    -0.44200
N267        N  0.35368525  0.01127393  0.03166023    -0.41600
N268        N  0.38951404  0.50411579  0.22625155    -0.43000
H269        H  0.41771148  0.50108244  0.14930433     0.13100
H270        H  0.32741135  0.01323181  0.10834671     0.09600
H271        H  0.31963952  0.04835533  0.16266980     0.10700
H272        H  0.29358453  0.46806522  0.22323157     0.16500
C273        C  0.00815904  0.38715728  0.15474681    -0.01700
C274        C  0.49108277  0.36580538  0.15298807     0.06900
C275        C  0.46984880  0.36741587  0.13175302    -0.07700
C276        C  0.46608972  0.38937676  0.11147723     0.04300
C277        C  0.48345261  0.41064531  0.11273516    -0.14900
C278        C  0.00403359  0.40949106  0.13496816    -0.08200
C279        C  0.49520665  0.34120838  0.17213128     0.05300
C280        C  0.99065493  0.34090675  0.20627443    -0.09400
C281        C  0.99450332  0.31806086  0.22498635     0.00300
C282        C  0.50304713  0.29504663  0.20959079     0.00100
C283        C  0.50686567  0.29506517  0.17527617    -0.12900
C284        C  0.50297711  0.31790431  0.15648295     0.00600
C285        C  0.98956430  0.31867797  0.26013077     0.39900
C286        C  0.50770312  0.31721400  0.12130448     0.36500
C287        C  0.03086835  0.38596325  0.17528181     0.36300
C288        C  0.44439592  0.38943235  0.08920258     0.37000
N289        N  0.98547554  0.31908093  0.28827037    -0.43800
N290        N  0.51142898  0.31671593  0.09308772    -0.44200
N291        N  0.42702966  0.38929648  0.07131133    -0.41600
N292        N  0.04914151  0.38493720  0.19160139    -0.43000
H293        H  0.01769495  0.42551252  0.13573688     0.13100
H294        H  0.45650806  0.35111746  0.13042629     0.09600
H295        H  0.98421489  0.35859249  0.21835549     0.10700
H296        H  0.51354593  0.27742036  0.16331443     0.16500
C297        C  0.48384334  0.13489367  0.11379607    -0.01700
C298        C  0.49537071  0.13242596  0.14508823     0.06900
C299        C  0.00453610  0.10776575  0.15570606    -0.07700
C300        C  0.00165023  0.08559623  0.13569002     0.04300
C301        C  0.48870787  0.08791067  0.10472586    -0.14900
C302        C  0.48030664  0.11280472  0.09419951    -0.08200
C303        C  0.49949697  0.15570833  0.16608609     0.05300
C304        C  0.47849139  0.16670487  0.18258697    -0.09400
C305        C  0.48139830  0.18924261  0.20180115     0.00300
C306        C  0.50593053  0.20115981  0.20488819     0.00100
C307        C  0.02681277  0.19038339  0.18733369    -0.12900
C308        C  0.02383470  0.16794088  0.16804371     0.00600
C309        C  0.45882027  0.19892105  0.21837740     0.39900
C310        C  0.04558261  0.15821096  0.14964096     0.36500
C311        C  0.47667273  0.16017353  0.10064589     0.36300
C312        C  0.01308922  0.06138586  0.14683435     0.37000
N313        N  0.44018201  0.20627169  0.23087518    -0.43800
N314        N  0.06281646  0.15031884  0.13460602    -0.44200
N315        N  0.02242375  0.04209555  0.15587395    -0.41600
N316        N  0.47126805  0.18052114  0.09009840    -0.43000
H317        H  0.47123851  0.11522235  0.07020974     0.13100
H318        H  0.01422702  0.10606391  0.17938745     0.09600
H319        H  0.45971417  0.15755808  0.18043360     0.10700
H320        H  0.04559148  0.19959763  0.18863351     0.16500
C321        C  0.11197356  0.40052405  0.02363586    -0.01700
C322        C  0.10814806  0.37465077  0.01322614     0.06900
C323        C  0.08401934  0.36675415  0.00160290    -0.07700
C324        C  0.06371159  0.38449218  0.99936308     0.04300
C325        C  0.06754879  0.41073904  0.00926771    -0.14900
C326        C  0.09172853  0.41827316  0.02168539    -0.08200
C327        C  0.12916722  0.35548294  0.01328247     0.05300
C328        C  0.12837257  0.33486932  0.03624121    -0.09400
C329        C  0.14706003  0.31532018  0.03572103     0.00300
C330        C  0.16684649  0.31639710  0.01184948     0.00100
C331        C  0.16760329  0.33708532  0.98891058    -0.12900
C332        C  0.14892811  0.35662907  0.98946132     0.00600
C333        C  0.14538678  0.29422518  0.05955891     0.39900
C334        C  0.15006125  0.37730981  0.96497595     0.36500
C335        C  0.13642714  0.40932535  0.03640248     0.36300
C336        C  0.03973402  0.37524950  0.98556094     0.37000
N337        N  0.14390017  0.27717520  0.07843843    -0.43800
N338        N  0.15102763  0.39392896  0.94543302    -0.44200
N339        N  0.02062840  0.36762627  0.97446587    -0.41600
N340        N  0.15595509  0.41660355  0.04659827    -0.43000
H341        H  0.09492752  0.43815071  0.02993749     0.13100
H342        H  0.08126524  0.34675294  0.99352968     0.09600
H343        H  0.11297459  0.33397043  0.05434457     0.10700
H344        H  0.18269637  0.33776652  0.97038007     0.16500
C345        C  0.38136661  0.37001254  0.98252999    -0.01700
C346        C  0.35999517  0.37217987  0.00368104     0.06900
C347        C  0.35801516  0.39331446  0.02525213    -0.07700
C348        C  0.37687732  0.41272746  0.02551529     0.04300
C349        C  0.39801390  0.41105123  0.00372283    -0.14900
C350        C  0.40027594  0.38944447  0.98270869    -0.08200
C351        C  0.33928404  0.35265424  0.00361356     0.05300
C352        C  0.33917215  0.33321466  0.02814452    -0.09400
C353        C  0.31965299  0.31444919  0.02900317     0.00300
C354        C  0.29977885  0.31543830  0.00527715     0.00100
C355        C  0.29984855  0.33503590  0.98088222    -0.12900
C356        C  0.31958567  0.35354738  0.97974656     0.00600
C357        C  0.32040809  0.29440243  0.05431287     0.39900
C358        C  0.31945629  0.37310932  0.95381154     0.36500
C359        C  0.38418301  0.34799576  0.96067313     0.36300
C360        C  0.37482552  0.43323158  0.04968073     0.37000
N361        N  0.32118359  0.27831067  0.07455562    -0.43800
N362        N  0.31948339  0.38870182  0.93292649    -0.44200
N363        N  0.37315512  0.44933175  0.06949543    -0.41600
N364        N  0.38630388  0.33025788  0.94327885    -0.43000
H365        H  0.41662213  0.38795377  0.96613318     0.13100
H366        H  0.34170712  0.39456724  0.04192805     0.09600
H367        H  0.35444205  0.33265218  0.04643391     0.10700
H368        H  0.28465289  0.33558603  0.96249892     0.16500
C369        C  0.38455234  0.12802162  0.01102911    -0.01700
C370        C  0.35933876  0.12359128  0.99941114     0.06900
C371        C  0.35331530  0.09940515  0.98516241    -0.07700
C372        C  0.37172472  0.07961024  0.98274406     0.04300
C373        C  0.39669771  0.08352527  0.99590976    -0.14900
C374        C  0.40271189  0.10791749  0.00986960    -0.08200
C375        C  0.33923563  0.14419675  0.99982151     0.05300
C376        C  0.32735171  0.15105093  0.96979751    -0.09400
C377        C  0.30753647  0.16943407  0.96878885     0.00300
C378        C  0.29968445  0.18175068  0.99810136     0.00100
C379        C  0.31147264  0.17505236  0.02819116    -0.12900
C380        C  0.33089036  0.15612800  0.02938209     0.00600
C381        C  0.29529080  0.17505763  0.93751409     0.39900
C382        C  0.34119555  0.14861656  0.06124430     0.36500
C383        C  0.39271495  0.15334448  0.02266975     0.36300
C384        C  0.36460332  0.05621449  0.96508883     0.37000
N385        N  0.28549299  0.17935935  0.91236229    -0.43800
N386        N  0.34959079  0.14264475  0.08671487    -0.44200
N387        N  0.35865803  0.03770311  0.95063499    -0.41600
N388        N  0.39935029  0.17362725  0.03192551    -0.43000
H389        H  0.42182572  0.11149705  0.01963412     0.13100
H390        H  0.33415326  0.09612985  0.97534692     0.09600
H391        H  0.33345784  0.14179428  0.94705498     0.10700
H392        H  0.30512187  0.18431000  0.05082598     0.16500
C393        C  0.08060784  0.12937393  0.98981912    -0.01700
C394        C  0.10511232  0.12480283  0.00341032     0.06900
C395        C  0.11056035  0.10069700  0.01829185    -0.07700
C396        C  0.09205705  0.08085984  0.01949093     0.04300
C397        C  0.06754587  0.08496756  0.00504124    -0.14900
C398        C  0.06200767  0.10957638  0.99089681    -0.08200
C399        C  0.12547523  0.14490646  0.00278386     0.05300
C400        C  0.12872068  0.16084626  0.03053626    -0.09400
C401        C  0.14868181  0.17919632  0.03159192     0.00300
C402        C  0.16556243  0.18173447  0.00444166     0.00100
C403        C  0.16240363  0.16566902  0.97680818    -0.12900
C404        C  0.14254432  0.14723252  0.97583341     0.00600
C405        C  0.15194710  0.19475477  0.06097473     0.39900
C406        C  0.14022969  0.13072383  0.94717648     0.36500
C407        C  0.07440943  0.15392195  0.97389120     0.36300
C408        C  0.09865518  0.05706283  0.03690249     0.37000
N409        N  0.15469447  0.20715065  0.08455905    -0.43800
N410        N  0.13851674  0.11751878  0.92415137    -0.44200
N411        N  0.10426762  0.03818923  0.05107620    -0.41600
N412        N  0.06947245  0.17350256  0.96087747    -0.43000
H413        H  0.04332897  0.11320262  0.97983226     0.13100
H414        H  0.12939062  0.09744030  0.02913735     0.09600
H415        H  0.11582087  0.15870000  0.05148797     0.10700
H416        H  0.17546582  0.16762434  0.95599983     0.16500
C417        C  0.37926837  0.01205218  0.83585847    -0.01700
C418        C  0.35708493  0.99664988  0.84140868     0.06900
C419        C  0.35672600  0.47950645  0.86983853    -0.07700
C420        C  0.37737237  0.47824835  0.89198622     0.04300
C421        C  0.39899570  0.99426023  0.88627267    -0.14900
C422        C  0.40004429  0.01073864  0.85823590    -0.08200
C423        C  0.33325736  0.99904860  0.82112850     0.05300
C424        C  0.33083666  0.48552591  0.79310341    -0.09400
C425        C  0.30727956  0.48417746  0.77598465     0.00300
C426        C  0.28514874  0.49705227  0.78854878     0.00100
C427        C  0.28818827  0.01147443  0.81637988    -0.12900
C428        C  0.31178013  0.01278842  0.83308074     0.00600
C429        C  0.30650162  0.46811955  0.74682586     0.39900
C430        C  0.31363883  0.02864425  0.86239539     0.36500
C431        C  0.38080346  0.02975963  0.80797058     0.36300
C432        C  0.37596257  0.45936168  0.91862417     0.37000
N433        N  0.30657521  0.45516266  0.72346739    -0.43800
N434        N  0.31522596  0.04153118  0.88572300    -0.44200
N435        N  0.37461752  0.44409654  0.93980749    -0.41600
N436        N  0.38213236  0.04389952  0.78555045    -0.43000
H437        H  0.41664595  0.02329363  0.85447857     0.13100
H438        H  0.34005571  0.46706611  0.87380180     0.09600
H439        H  0.34742428  0.47501491  0.78385179     0.10700
H440        H  0.27207530  0.02247459  0.82600765     0.16500
C441        C  0.14750766  0.01892731  0.80959533    -0.01700
C442        C  0.14155545  0.99677902  0.82914802     0.06900
C443        C  0.15790655  0.47298569  0.82776318    -0.07700
C444        C  0.18037641  0.47381149  0.80836449     0.04300
C445        C  0.18682391  0.49645427  0.78939352    -0.14900
C446        C  0.16972438  0.01932818  0.78969544    -0.08200
C447        C  0.11855400  0.99598067  0.85175239     0.05300
C448        C  0.09350303  0.49824548  0.83931361    -0.09400
C449        C  0.07160032  0.49897555  0.85985661     0.00300
C450        C  0.07437696  0.99586019  0.89408209     0.00100
C451        C  0.09929683  0.99097825  0.90656935    -0.12900
C452        C  0.12108873  0.99121289  0.88604636     0.00600
C453        C  0.04744142  0.50608996  0.84468683     0.39900
C454        C  0.14600539  0.98740830  0.90113646     0.36500
C455        C  0.13159248  0.04203791  0.81046846     0.36300
C456        C  0.19636235  0.45081401  0.80868995     0.37000
N457        N  0.02823591  0.51190919  0.83218139    -0.43800
N458        N  0.16596971  0.98434604  0.91321897    -0.44200
N459        N  0.20875730  0.43207002  0.80910850    -0.41600
N460        N  0.11875089  0.06048139  0.81119627    -0.43000
H461        H  0.17339582  0.03705674  0.77600980     0.13100
H462        H  0.15334670  0.45536160  0.84166972     0.09600
H463        H  0.09140766  0.50212413  0.81303622     0.10700
H464        H  0.10201115  0.98717506  0.93275758     0.16500
C465        C  0.00803596  0.10788181  0.84362677    -0.01700
C466        C  0.49254417  0.13049492  0.84797693     0.06900
C467        C  0.47386166  0.13048798  0.87299444    -0.07700
C468        C  0.47060630  0.10890068  0.89412935     0.04300
C469        C  0.48599080  0.08627141  0.89021424    -0.14900
C470        C  0.00443858  0.08593971  0.86438731    -0.08200
C471        C  0.49603589  0.15466632  0.82730281     0.05300
C472        C  0.99159613  0.15389306  0.79305791    -0.09400
C473        C  0.99433288  0.17637661  0.77311329     0.00300
C474        C  0.50199807  0.20018048  0.78739789     0.00100
C475        C  0.50637948  0.20115433  0.82157006    -0.12900
C476        C  0.50353158  0.17871800  0.84150648     0.00600
C477        C  0.98857195  0.17469148  0.73826138     0.39900
C478        C  0.50971665  0.18054601  0.87622929     0.36500
C479        C  0.02841385  0.10720129  0.81941875     0.36300
C480        C  0.45108297  0.11057921  0.91946118     0.37000
N481        N  0.98361358  0.17351312  0.71040013    -0.43800
N482        N  0.51479135  0.18197882  0.90403404    -0.44200
N483        N  0.43539172  0.11223651  0.93963977    -0.41600
N484        N  0.04491653  0.10664195  0.80021654    -0.43000
H485        H  0.01666613  0.06895689  0.86143724     0.13100
H486        H  0.46193313  0.14765388  0.87628810     0.09600
H487        H  0.98558214  0.13563430  0.78195417     0.10700
H488        H  0.51295182  0.21928245  0.83251085     0.16500
C489        C  0.47745370  0.36011082  0.88491102    -0.01700
C490        C  0.49407687  0.36015616  0.85736129     0.06900
C491        C  0.00865462  0.38288711  0.85046563    -0.07700
C492        C  0.00647007  0.40528643  0.87029124     0.04300
C493        C  0.48922377  0.40546166  0.89728878    -0.14900
C494        C  0.47503181  0.38259355  0.90436299    -0.08200
C495        C  0.49775123  0.33626148  0.83677662     0.05300
C496        C  0.47770190  0.32745913  0.81634758    -0.09400
C497        C  0.48091495  0.30568863  0.79563292     0.00300
C498        C  0.50448266  0.29188909  0.79551088     0.00100
C499        C  0.02413509  0.30019233  0.81703187    -0.12900
C500        C  0.02107457  0.32219676  0.83723462     0.00600
C501        C  0.46028765  0.29922556  0.77327202     0.39900
C502        C  0.04209425  0.33010126  0.85832490     0.36500
C503        C  0.46379832  0.33671883  0.89476828     0.36300
C504        C  0.02366774  0.42692491  0.86402065     0.37000
N505        N  0.44355168  0.29436566  0.75545548    -0.43800
N506        N  0.05883113  0.33673081  0.87521017    -0.44200
N507        N  0.03770710  0.44410548  0.85918227    -0.41600
N508        N  0.45308767  0.31785719  0.90279262    -0.43000
H509        H  0.46227557  0.38210151  0.92560749     0.13100
H510        H  0.02218676  0.38283727  0.83003636     0.09600
H511        H  0.45971198  0.33816010  0.81585016     0.10700
H512        H  0.04221466  0.28966097  0.81778999     0.16500
C513        C  0.39667997  0.23796624  0.61445087    -0.01700
C514        C  0.39559885  0.25049356  0.64535183     0.06900
C515        C  0.37252681  0.26247732  0.65510742    -0.07700
C516        C  0.35079614  0.26242272  0.63430348     0.04300
C517        C  0.35197618  0.25020449  0.60306940    -0.14900
C518        C  0.37507757  0.23791393  0.59371287    -0.08200
C519        C  0.41861309  0.25152772  0.66734031     0.05300
C520        C  0.43772251  0.27029986  0.66106567    -0.09400
C521        C  0.46055635  0.27071256  0.67958628     0.00300
C522        C  0.46470713  0.25194692  0.70499341     0.00100
C523        C  0.44513121  0.23372370  0.71196418    -0.12900
C524        C  0.42233764  0.23325566  0.69318411     0.00600
C525        C  0.47923470  0.29092794  0.67241221     0.39900
C526        C  0.40340245  0.21323042  0.69983230     0.36500
C527        C  0.41980248  0.22499064  0.60352829     0.36300
C528        C  0.32795102  0.27606827  0.64479250     0.37000
N529        N  0.49435942  0.30699031  0.66675982    -0.43800
N530        N  0.38814506  0.19717464  0.70483928    -0.44200
N531        N  0.30944471  0.28692459  0.65267303    -0.41600
N532        N  0.43831246  0.21456391  0.59478747    -0.43000
H533        H  0.37632173  0.22819582  0.56999246     0.13100
H534        H  0.37163581  0.27222696  0.67881052     0.09600
H535        H  0.43490256  0.28448069  0.64132193     0.10700
H536        H  0.44802754  0.21922661  0.73129247     0.16500
C537        C  0.10226256  0.26870001  0.68954230    -0.01700
C538        C  0.10800469  0.24689432  0.66973585     0.06900
C539        C  0.09065751  0.22584767  0.66957076    -0.07700
C540        C  0.06763678  0.22652385  0.68757260     0.04300
C541        C  0.06192866  0.24799313  0.70844258    -0.14900
C542        C  0.07963378  0.26907916  0.70853612    -0.08200
C543        C  0.13103898  0.24611204  0.64745066     0.05300
C544        C  0.15586192  0.25035966  0.66021990    -0.09400
C545        C  0.17770616  0.25026894  0.63960242     0.00300
C546        C  0.17517114  0.24447540  0.60546075     0.00100
C547        C  0.15024890  0.23911792  0.59330722    -0.12900
C548        C  0.12842057  0.24092892  0.61339736     0.00600
C549        C  0.20214729  0.25685481  0.65432293     0.39900
C550        C  0.10338849  0.23895055  0.59798170     0.36500
C551        C  0.11879778  0.29144320  0.68998325     0.36300
C552        C  0.04984373  0.20515403  0.68288302     0.37000
N553        N  0.22165380  0.26212808  0.66639667    -0.43800
N554        N  0.08324620  0.23761984  0.58588736    -0.44200
N555        N  0.53638085  0.18750076  0.67974315    -0.41600
N556        N  0.13210952  0.30960453  0.69052864    -0.43000
H557        H  0.07590465  0.28663122  0.72223730     0.13100
H558        H  0.09480436  0.20894484  0.65442797     0.09600
H559        H  0.15817259  0.25416685  0.68640969     0.10700
H560        H  0.14745131  0.23444907  0.56743125     0.16500
C561        C  0.27750525  0.11547742  0.62108538    -0.01700
C562        C  0.25988436  0.11499339  0.64752335     0.06900
C563        C  0.24513989  0.13732788  0.65394218    -0.07700
C564        C  0.24701322  0.15965996  0.63366046     0.04300
C565        C  0.26416594  0.15999710  0.60646285    -0.14900
C566        C  0.27950797  0.13778546  0.60083328    -0.08200
C567        C  0.25505283  0.09060705  0.66690942     0.05300
C568        C  0.27263730  0.08272332  0.69126825    -0.09400
C569        C  0.26813576  0.06024716  0.71062892     0.00300
C570        C  0.24607363  0.04464289  0.70489033     0.00100
C571        C  0.22880663  0.05236898  0.67989679    -0.12900
C572        C  0.23295913  0.07525192  0.66129292     0.00600
C573        C  0.28528473  0.05534278  0.73797879     0.39900
C574        C  0.21400483  0.08310306  0.63709872     0.36500
C575        C  0.29282993  0.09277488  0.61357602     0.36300
C576        C  0.22935408  0.18080143  0.63960343     0.37000
N577        N  0.29932828  0.05257787  0.75991905    -0.43800
N578        N  0.19886568  0.08980556  0.61785971    -0.44200
N579        N  0.21478548  0.19737753  0.64452252    -0.41600
N580        N  0.30492089  0.07435658  0.60798698    -0.43000
H581        H  0.29269430  0.13761099  0.58002800     0.13100
H582        H  0.23134978  0.13688708  0.67409043     0.09600
H583        H  0.28947069  0.09471806  0.69594502     0.10700
H584        H  0.21158907  0.04086687  0.67558610     0.16500
C585        C  0.23765720  0.35929277  0.65085388    -0.01700
C586        C  0.25354486  0.38159823  0.64668824     0.06900
C587        C  0.27275788  0.38112258  0.62231609    -0.07700
C588        C  0.27563842  0.35958394  0.60141247     0.04300
C589        C  0.25920670  0.33766367  0.60466048    -0.14900
C590        C  0.24063271  0.33755545  0.62997022    -0.08200
C591        C  0.25027890  0.40582995  0.66688846     0.05300
C592        C  0.25402453  0.40472703  0.70127561    -0.09400
C593        C  0.25102912  0.42710181  0.72085753     0.00300
C594        C  0.24403326  0.45122800  0.70616591     0.00100
C595        C  0.24098363  0.45256233  0.67175282    -0.12900
C596        C  0.24407515  0.43019435  0.65210888     0.00600
C597        C  0.25623821  0.42507005  0.75585244     0.39900
C598        C  0.23973965  0.43249017  0.61694119     0.36500
C599        C  0.21752181  0.35871204  0.67546539     0.36300
C600        C  0.29600334  0.36027974  0.57712412     0.37000
N601        N  0.26104922  0.42346884  0.78374441    -0.43800
N602        N  0.23628327  0.43426793  0.58873381    -0.44200
N603        N  0.31238599  0.36082991  0.55775051    -0.41600
N604        N  0.20143043  0.35830233  0.69526357    -0.43000
H605        H  0.22782352  0.32090127  0.63265330     0.13100
H606        H  0.28545062  0.39784032  0.61940105     0.09600
H607        H  0.25945277  0.38634793  0.71282631     0.10700
H608        H  0.23542842  0.47094396  0.66031706     0.16500
C609        C  0.42891620  0.10344141  0.48042610    -0.01700
C610        C  0.41532129  0.11264825  0.50810338     0.06900
C611        C  0.42070529  0.10261556  0.53969425    -0.07700
C612        C  0.43916141  0.08304928  0.54388491     0.04300
C613        C  0.45255525  0.07364210  0.51615189    -0.14900
C614        C  0.44764750  0.08420665  0.48469746    -0.08200
C615        C  0.39445994  0.13180522  0.50442007     0.05300
C616        C  0.36950096  0.12260122  0.49897061    -0.09400
C617        C  0.34891743  0.13993744  0.49586566     0.00300
C618        C  0.35326711  0.16726044  0.49857787     0.00100
C619        C  0.37863341  0.17626543  0.50368346    -0.12900
C620        C  0.39912889  0.15877806  0.50658642     0.00600
C621        C  0.32379472  0.12887300  0.48957882     0.39900
C622        C  0.42475632  0.16882203  0.51210774     0.36500
C623        C  0.42328868  0.11273655  0.44740593     0.36300
C624        C  0.44364630  0.07244454  0.57655195     0.37000
N625        N  0.30361329  0.12013806  0.48458019    -0.43800
N626        N  0.44532080  0.17677961  0.51654665    -0.44200
N627        N  0.44722405  0.06391790  0.60273928    -0.41600
N628        N  0.41872157  0.11999249  0.42087094    -0.43000
H629        H  0.45788576  0.07673545  0.46338306     0.13100
H630        H  0.41006368  0.10968772  0.56090374     0.09600
H631        H  0.36613404  0.10171581  0.49715459     0.10700
H632        H  0.38256706  0.19700504  0.50590216     0.16500
C633        C  0.11789964  0.08686397  0.54111318    -0.01700
C634        C  0.12512813  0.09805497  0.51051527     0.06900
C635        C  0.11218214  0.09102344  0.48152495    -0.07700
C636        C  0.09169562  0.07340937  0.48278983     0.04300
C637        C  0.08457996  0.06211208  0.51330951    -0.14900
C638        C  0.09788791  0.06863770  0.54221390    -0.08200
C639        C  0.14471352  0.11875300  0.50837421     0.05300
C640        C  0.16873075  0.11301705  0.49461530    -0.09400
C641        C  0.18731414  0.13259219  0.49070399     0.00300
C642        C  0.18199993  0.15832532  0.50150623     0.00100
C643        C  0.15759057  0.16393086  0.51470375    -0.12900
C644        C  0.13893790  0.14445190  0.51789635     0.00600
C645        C  0.21091377  0.12597490  0.47382734     0.39900
C646        C  0.11377100  0.15130885  0.53026680     0.36500
C647        C  0.13004382  0.09453050  0.57167675     0.36300
C648        C  0.07775833  0.06765991  0.45280236     0.37000
N649        N  0.22972576  0.12078354  0.46004099    -0.43800
N650        N  0.09354017  0.15665674  0.54004725    -0.44200
N651        N  0.06640207  0.06309063  0.42890162    -0.41600
N652        N  0.13946328  0.10090775  0.59627952    -0.43000
H653        H  0.09218919  0.05993864  0.56565393     0.13100
H654        H  0.11754999  0.10000928  0.45812377     0.09600
H655        H  0.17274205  0.09329967  0.48637544     0.10700
H656        H  0.15300389  0.18358014  0.52267109     0.16500
C657        C  0.11239361  0.40708150  0.52275048    -0.01700
C658        C  0.11466592  0.39005099  0.49567533     0.06900
C659        C  0.09745428  0.39222321  0.46903482    -0.07700
C660        C  0.07809220  0.41124815  0.46917703     0.04300
C661        C  0.07577658  0.42813620  0.49639183    -0.14900
C662        C  0.09300534  0.42595956  0.52293001    -0.08200
C663        C  0.13521131  0.37013023  0.49473978     0.05300
C664        C  0.13150682  0.34648900  0.51168303    -0.09400
C665        C  0.15094434  0.32763183  0.51273349     0.00300
C666        C  0.17449380  0.33212170  0.49604314     0.00100
C667        C  0.17823396  0.35612831  0.47952217    -0.12900
C668        C  0.15886900  0.37511459  0.47894511     0.00600
C669        C  0.14669753  0.30464111  0.53279017     0.39900
C670        C  0.16388137  0.39995268  0.46306467     0.36500
C671        C  0.13004695  0.40577849  0.55028452     0.36300
C672        C  0.06124507  0.41385794  0.44094154     0.37000
N673        N  0.14325357  0.28632791  0.54910307    -0.43800
N674        N  0.16775979  0.42006050  0.45074642    -0.44200
N675        N  0.04755083  0.41642504  0.41858314    -0.41600
N676        N  0.14424004  0.40472653  0.57230729    -0.43000
H677        H  0.09141088  0.43923761  0.54363199     0.13100
H678        H  0.09934630  0.37925558  0.44806966     0.09600
H679        H  0.11355195  0.34302948  0.52471316     0.10700
H680        H  0.19631498  0.36011792  0.46706780     0.16500
C681        C  0.38801823  0.35373606  0.50993973    -0.01700
C682        C  0.38316564  0.37829169  0.49529725     0.06900
C683        C  0.35989273  0.38270546  0.47874987    -0.07700
C684        C  0.34100268  0.36323795  0.47756908     0.04300
C685        C  0.34539500  0.33887270  0.49334170    -0.14900
C686        C  0.36916411  0.33431381  0.50894583    -0.08200
C687        C  0.40247939  0.39939547  0.49652338     0.05300
C688        C  0.41426429  0.40756251  0.46701631    -0.09400
C689        C  0.43404463  0.42606672  0.46753054     0.00300
C690        C  0.44243817  0.43617188  0.49802091     0.00100
C691        C  0.43001878  0.42877871  0.52736757    -0.12900
C692        C  0.40982399  0.41077223  0.52677618     0.00600
C693        C  0.44516333  0.43472918  0.43660121     0.39900
C694        C  0.39644560  0.40478564  0.55723119     0.36500
C695        C  0.41231238  0.34801635  0.52580087     0.36300
C696        C  0.31776858  0.36854539  0.45911527     0.37000
N697        N  0.45382286  0.44185079  0.41173774    -0.43800
N698        N  0.38557163  0.40015946  0.58157218    -0.44200
N699        N  0.29917098  0.37275935  0.44427750    -0.41600
N700        N  0.43179333  0.34365774  0.53854443    -0.43000
H701        H  0.37294354  0.31563273  0.52083016     0.13100
H702        H  0.35647586  0.40146041  0.46686473     0.09600
H703        H  0.40820329  0.39921640  0.44367499     0.10700
H704        H  0.43606402  0.43721798  0.55065965     0.16500
C705        C  0.15156566  0.26476986  0.34320303    -0.01700
C706        C  0.13138164  0.24638402  0.34671994     0.06900
C707        C  0.13391236  0.22628363  0.37029986    -0.07700
C708        C  0.15526086  0.22509686  0.39140210     0.04300
C709        C  0.17500730  0.24406164  0.38880374    -0.14900
C710        C  0.17318037  0.26340758  0.36408488    -0.08200
C711        C  0.10691900  0.24821283  0.32737178     0.05300
C712        C  0.10727894  0.24538761  0.29291022    -0.09400
C713        C  0.08435194  0.24535204  0.27444163     0.00300
C714        C  0.06004322  0.24791884  0.29044785     0.00100
C715        C  0.06015441  0.25204782  0.32493097    -0.12900
C716        C  0.08304466  0.25181796  0.34327036     0.00600
C717        C  0.08647587  0.24196936  0.23907502     0.39900
C718        C  0.08145871  0.25524411  0.37865492     0.36500
C719        C  0.15005756  0.28584397  0.31937395     0.36300
C720        C  0.15638549  0.20408702  0.41540727     0.37000
N721        N  0.08804891  0.23887641  0.21080456    -0.43800
N722        N  0.08012290  0.25768493  0.40704318    -0.44200
N723        N  0.15698922  0.18712162  0.43447441    -0.41600
N724        N  0.14895651  0.30272988  0.30022548    -0.43000
H725        H  0.18815171  0.27813556  0.36199213     0.13100
H726        H  0.11877941  0.21175179  0.37271854     0.09600
H727        H  0.12554773  0.24265541  0.28043353     0.10700
H728        H  0.04258221  0.25579025  0.33821385     0.16500
C729        C  0.38970940  0.26888327  0.36512979    -0.01700
C730        C  0.39028498  0.25027261  0.33951952     0.06900
C731        C  0.37052401  0.23156710  0.33771367    -0.07700
C732        C  0.35032844  0.23129213  0.36080075     0.04300
C733        C  0.34938830  0.25033292  0.38591493    -0.14900
C734        C  0.36932682  0.26886911  0.38789995    -0.08200
C735        C  0.41320157  0.24775977  0.31766460     0.05300
C736        C  0.42933593  0.22610347  0.32229497    -0.09400
C737        C  0.45289978  0.22436957  0.30568644     0.00300
C738        C  0.46098252  0.24490855  0.28460941     0.00100
C739        C  0.44391186  0.26542570  0.27772152    -0.12900
C740        C  0.42013681  0.26703460  0.29404750     0.00600
C741        C  0.46756484  0.20056250  0.30887782     0.39900
C742        C  0.40339727  0.28869517  0.28628879     0.36500
C743        C  0.41065804  0.28711713  0.36967537     0.36300
C744        C  0.33221882  0.20984952  0.36017164     0.37000
N745        N  0.47877354  0.18109316  0.31085635    -0.43800
N746        N  0.39021333  0.30615941  0.27962862    -0.44200
N747        N  0.31796722  0.19243462  0.36008601    -0.41600
N748        N  0.42760765  0.30153882  0.37322712    -0.43000
H749        H  0.36917117  0.28315050  0.40761239     0.13100
H750        H  0.37143272  0.21653413  0.31896203     0.09600
H751        H  0.42369598  0.21071563  0.33943771     0.10700
H752        H  0.44946788  0.28061630  0.26030246     0.16500
C753        C  0.23428691  0.37958292  0.37430751    -0.01700
C754        C  0.25124259  0.38364251  0.34748556     0.06900
C755        C  0.26968777  0.36429410  0.34057583    -0.07700
C756        C  0.27159745  0.34147022  0.36014739     0.04300
C757        C  0.25495443  0.33777081  0.38742488    -0.14900
C758        C  0.23632989  0.35697709  0.39394675    -0.08200
C759        C  0.24917469  0.40740178  0.32570274     0.05300
C760        C  0.25289670  0.43248268  0.33901927    -0.09400
C761        C  0.24917706  0.45518290  0.31968371     0.00300
C762        C  0.24181743  0.45306051  0.28610429     0.00100
C763        C  0.23869719  0.42788907  0.27274289    -0.12900
C764        C  0.24213440  0.40530888  0.29215185     0.00600
C765        C  0.25151153  0.48026870  0.33555970     0.39900
C766        C  0.23696796  0.38012514  0.27765984     0.36500
C767        C  0.21426357  0.39813024  0.38177116     0.36300
C768        C  0.29153679  0.32281788  0.35270499     0.37000
N769        N  0.25340760  0.50030513  0.34847251    -0.43800
N770        N  0.23280489  0.35976923  0.26653273    -0.44200
N771        N  0.30755549  0.30788854  0.34674650    -0.41600
N772        N  0.19824320  0.41308041  0.38756328    -0.43000
H773        H  0.22331314  0.35433809  0.41468662     0.13100
H774        H  0.28278561  0.36716218  0.31997443     0.09600
H775        H  0.25812451  0.43432598  0.36487493     0.10700
H776        H  0.23306158  0.42581112  0.24706486     0.16500
C777        C  0.27514657  0.11360484  0.37567639    -0.01700
C778        C  0.25770600  0.11419321  0.34896840     0.06900
C779        C  0.24323641  0.13689333  0.34323153    -0.07700
C780        C  0.24571193  0.15878005  0.36373803     0.04300
C781        C  0.26334782  0.15845473  0.39035678    -0.14900
C782        C  0.27796787  0.13565536  0.39592687    -0.08200
C783        C  0.25231961  0.09056942  0.32874953     0.05300
C784        C  0.22910816  0.07714731  0.33393100    -0.09400
C785        C  0.22267622  0.05518286  0.31510375     0.00300
C786        C  0.23971629  0.04613042  0.29050406     0.00100
C787        C  0.26327888  0.05921094  0.28587414    -0.12900
C788        C  0.26953907  0.08145614  0.30444377     0.00600
C789        C  0.19879731  0.04193027  0.32232956     0.39900
C790        C  0.29318540  0.09520651  0.29723020     0.36500
C791        C  0.28915535  0.09005983  0.38381203     0.36300
C792        C  0.22821458  0.18031619  0.35877385     0.37000
N793        N  0.17959333  0.03156874  0.32863763    -0.43800
N794        N  0.31208212  0.10627076  0.29121865    -0.44200
N795        N  0.21399530  0.19746235  0.35510009    -0.41600
N796        N  0.30014285  0.07104125  0.39028118    -0.43000
H797        H  0.29118254  0.13482968  0.41665936     0.13100
H798        H  0.22924670  0.13714209  0.32331998     0.09600
H799        H  0.21592545  0.08392689  0.35281653     0.10700
H800        H  0.27648697  0.05253800  0.26699121     0.16500
O801        O  0.26282014  0.70574930  0.40309998    -0.86200
O802        O  0.26369688  0.70565701  0.59223055    -0.86400
O803        O  0.30745306  0.67747471  0.49770007    -0.88000
O804        O  0.22425244  0.67400012  0.49738230    -0.86800
O805        O  0.19209364  0.70451298  0.49788502    -0.86400
O806        O  0.33757914  0.70996504  0.49502199    -0.87700
O807        O  0.26455672  0.67547308  0.55070490    -0.86200
O808        O  0.26593666  0.67481018  0.44443850    -0.85800
Zr809      Zr  0.26508740  0.69723832  0.49707660     2.84300
O810        O  0.23860009  0.72201636  0.53120123    -1.07800
O811        O  0.28963508  0.72411959  0.46221165    -1.08500
C812        C  0.26419729  0.68177131  0.41377653     1.06900
C813        C  0.26386171  0.68180458  0.58157840     1.06900
C814        C  0.33088634  0.68569612  0.49638229     1.09800
C815        C  0.20035352  0.68076615  0.49748188     1.07600
H816        H  0.30148278  0.71323559  0.54398594     0.33200
O817        O  0.29030109  0.72397528  0.53057660    -1.28700
H818        H  0.22756026  0.71076490  0.44972416     0.32900
O819        O  0.23815146  0.72214907  0.46298662    -1.30400
O820        O  0.26175065  0.79195594  0.59203444    -0.86200
O821        O  0.26057289  0.79360123  0.40227467    -0.87700
O822        O  0.33724158  0.75086592  0.54828611    -0.86300
O823        O  0.19045230  0.74530242  0.54989356    -0.86300
O824        O  0.18984559  0.74595851  0.44437203    -0.86000
O825        O  0.33572004  0.75181016  0.44171752    -0.85800
O826        O  0.30316463  0.82420788  0.49415177    -0.86200
O827        O  0.21917549  0.82143137  0.49606051    -0.88100
O828        O  0.33529368  0.79366308  0.49437727    -0.86700
O829        O  0.18925256  0.78862243  0.49698702    -0.85900
O830        O  0.30730217  0.74965082  0.59014091    -0.86300
O831        O  0.30472850  0.74996551  0.40124687    -0.86000
O832        O  0.21965646  0.74892169  0.40253330    -0.85700
O833        O  0.22056332  0.74637302  0.59117131    -0.86100
O834        O  0.26183019  0.82291327  0.55052408    -0.86400
O835        O  0.25876269  0.82391328  0.44395300    -0.87700
Zr836      Zr  0.26372956  0.74897073  0.56516665     2.83100
Zr837      Zr  0.26256653  0.74963625  0.42840367     2.83500
Zr838      Zr  0.31468522  0.75114785  0.49567154     2.84100
Zr839      Zr  0.21213366  0.74736174  0.49714765     2.83400
Zr840      Zr  0.26177868  0.80153033  0.49684018     2.84200
O841        O  0.23649469  0.77482189  0.46310572    -1.08300
O842        O  0.28871370  0.77628917  0.53055316    -1.07800
C843        C  0.26161546  0.81590956  0.58131666     1.06900
C844        C  0.25883217  0.81738535  0.41318602     1.09500
C845        C  0.33082300  0.75018189  0.57913495     1.07100
C846        C  0.19695301  0.74524374  0.58065721     1.07400
C847        C  0.19629128  0.74696368  0.41355864     1.07000
C848        C  0.32839091  0.75095767  0.41118282     1.06600
C849        C  0.32710238  0.81742502  0.49335566     1.07000
C850        C  0.19571849  0.81295776  0.49627951     1.06500
H851        H  0.29817784  0.78804004  0.44819323     0.33200
O852        O  0.28794191  0.77667121  0.46205934    -1.29400
H853        H  0.22567832  0.78497083  0.54462424     0.33200
O854        O  0.23688392  0.77446481  0.53108452    -1.30700
N855        N  0.47367716  0.50176172  0.50534342    -0.36300
N856        N  0.01532398  0.53937583  0.50290696    -0.56900
N857        N  0.05200035  0.49694177  0.49928612    -0.36300
N858        N  0.00990782  0.96015327  0.50943869    -0.56900
C859        C  0.46043730  0.52412860  0.50028088     0.27300
C860        C  0.45731057  0.98388371  0.50827073     0.27300
C861        C  0.06733854  0.51743130  0.49157942     0.27300
C862        C  0.06510748  0.97469372  0.50647430     0.27300
C863        C  0.49580092  0.55564740  0.51083422     0.35900
C864        C  0.03726956  0.55316694  0.50656379     0.35900
C865        C  0.48778677  0.94636213  0.51307863     0.35900
C866        C  0.02929248  0.94272782  0.51257683     0.35900
C867        C  0.43587414  0.51836526  0.48903105    -0.21600
C868        C  0.43370576  0.99434785  0.49930194    -0.21600
C869        C  0.09028856  0.50848401  0.47833942    -0.21600
C870        C  0.08979217  0.98108496  0.49611190    -0.21600
C871        C  0.50531493  0.58003885  0.51922841    -0.22600
C872        C  0.03179836  0.57849985  0.51625988    -0.22600
C873        C  0.49327687  0.92000338  0.51709993    -0.22600
C874        C  0.01947666  0.91766220  0.51596797    -0.22600
C875        C  0.46958206  0.54953514  0.50685973    -0.18000
C876        C  0.46282757  0.95685951  0.50925499    -0.18000
C877        C  0.05568625  0.94894424  0.50975804    -0.18000
C878        C  0.06196112  0.54379987  0.49859172    -0.18000
H879        H  0.42063176  0.53198956  0.48305487     0.14900
H880        H  0.41665137  0.98390403  0.49148013     0.14900
H881        H  0.10662456  0.52004994  0.47028748     0.14900
H882        H  0.10491135  0.96791268  0.48849839     0.14900
H883        H  0.49441823  0.59729666  0.52560127     0.13200
H884        H  0.04529296  0.59428010  0.52045692     0.13200
H885        H  0.47972471  0.90397252  0.51912634     0.13200
H886        H  0.03016933  0.89960519  0.51824088     0.13200
H887        H  0.49128612  0.50005394  0.51732206     0.26500
H888        H  0.03528123  0.49766554  0.51332016     0.26500
O889        O  0.48783061  0.95211041  0.90739218    -0.86200
O890        O  0.48180113  0.95575996  0.09616484    -0.86400
O891        O  0.02366306  0.92311606  0.00530896    -0.88000
O892        O  0.44123080  0.92343572  0.00099662    -0.86800
O893        O  0.41015001  0.95517899  0.00070884    -0.86400
O894        O  0.05488417  0.95471471  0.00428344    -0.87700
O895        O  0.48103708  0.92435378  0.05579791    -0.86200
O896        O  0.48542789  0.92203742  0.94979743    -0.85800
Zr897      Zr  0.48254386  0.94535323  0.00168529     2.84300
O898        O  0.45582534  0.97160703  0.03378339    -1.07800
O899        O  0.00969219  0.97062556  0.96771055    -1.08500
C900        C  0.48752168  0.92831660  0.91893740     1.06900
C901        C  0.48150192  0.93172613  0.08626296     1.06900
C902        C  0.04729911  0.93067582  0.00563036     1.09800
C903        C  0.41767430  0.93119068  0.00145109     1.07600
H904        H  0.01844137  0.96097816  0.04986102     0.33200
O905        O  0.00801613  0.97173500  0.03551580    -1.28700
H906        H  0.44766366  0.95924655  0.95150167     0.32900
O907        O  0.45802995  0.97060174  0.96507415    -1.30400
O908        O  0.48525301  0.54257334  0.09367903    -0.86200
O909        O  0.48640668  0.53977601  0.90513784    -0.87700
O910        O  0.05475342  0.99821969  0.05578211    -0.86300
O911        O  0.40909470  0.99958122  0.04979616    -0.86300
O912        O  0.41192510  0.99571934  0.94236539    -0.86000
O913        O  0.05785102  0.99647395  0.94913512    -0.85800
O914        O  0.02427088  0.57151018  0.00178091    -0.86200
O915        O  0.44098488  0.57088297  0.99802585    -0.85700
O916        O  0.05543773  0.53996128  0.00336431    -0.86700
O917        O  0.40980426  0.53929516  0.99637538    -0.85900
O918        O  0.02322478  0.99889589  0.09577385    -0.86300
O919        O  0.02823742  0.49522301  0.90709029    -0.86000
O920        O  0.44339029  0.49628041  0.90364178    -0.85700
O921        O  0.43797951  0.00131231  0.09244765    -0.86100
O922        O  0.48465733  0.57253028  0.05124371    -0.86400
O923        O  0.48375717  0.57103735  0.94557828    -0.87700
Zr924      Zr  0.48117344  0.99846084  0.06783289     2.83100
Zr925      Zr  0.48511393  0.99652074  0.93130692     2.83500
Zr926      Zr  0.03456953  0.99740325  0.00158991     2.84100
Zr927      Zr  0.43156187  0.99724849  0.99721475     2.83400
Zr928      Zr  0.48297735  0.54955201  0.99899183     2.84200
O929        O  0.45830185  0.52297843  0.96456780    -1.08300
O930        O  0.00818760  0.52406582  0.03438656    -1.07800
C931        C  0.48596791  0.56629641  0.08219541     1.06900
C932        C  0.48515293  0.56383652  0.91514278     1.09500
C933        C  0.04694591  0.99875788  0.08606543     1.07100
C934        C  0.41472893  0.00149864  0.08075848     1.07400
C935        C  0.41959269  0.49601090  0.91330613     1.07000
C936        C  0.05161877  0.49494012  0.91833741     1.06600
C937        C  0.04790313  0.56398311  0.00338300     1.07000
C938        C  0.41723426  0.56336100  0.99688875     1.06500
H939        H  0.02108698  0.53422919  0.95335570     0.33200
O940        O  0.00986639  0.52339247  0.96666351    -1.29400
H941        H  0.44563192  0.53581495  0.04576693     0.33200
O942        O  0.45648550  0.52437021  0.03306108    -1.30700
N943        N  0.19372234  0.74849465  0.00680842    -0.36300
N944        N  0.23244706  0.70839451  0.00131235    -0.56900
N945        N  0.27133488  0.74837902  0.00155363    -0.36300
N946        N  0.23275039  0.78853097  0.00560005    -0.56900
C947        C  0.17926733  0.72764308  0.99840507     0.27300
C948        C  0.17957377  0.77003177  0.00039047     0.27300
C949        C  0.28510376  0.72752690  0.99163089     0.27300
C950        C  0.28511029  0.76990750  0.99366145     0.27300
C951        C  0.21184333  0.69329715  0.00834547     0.35900
C952        C  0.25337584  0.69325945  0.00595328     0.35900
C953        C  0.21239901  0.80290016  0.01504512     0.35900
C954        C  0.25383223  0.80282331  0.01252821     0.35900
C955        C  0.15565277  0.73596479  0.98635786    -0.21600
C956        C  0.15589506  0.76283866  0.98745704    -0.21600
C957        C  0.30783208  0.73587056  0.97695398    -0.21600
C958        C  0.30777416  0.76274755  0.97808345    -0.21600
C959        C  0.21963963  0.66831324  0.01717362    -0.22600
C960        C  0.24607532  0.66828169  0.01561353    -0.22600
C961        C  0.22051499  0.82653484  0.02805396    -0.22600
C962        C  0.24693673  0.82648862  0.02642994    -0.22600
C963        C  0.18616459  0.70138697  0.00413139    -0.18000
C964        C  0.18670508  0.79565797  0.00913556    -0.18000
C965        C  0.27890713  0.79543224  0.00363974    -0.18000
C966        C  0.27870836  0.70134360  0.99884358    -0.18000
H967        H  0.13974011  0.72391130  0.97826627     0.14900
H968        H  0.14018143  0.77558529  0.98046277     0.14900
H969        H  0.32315100  0.72385879  0.96724418     0.14900
H970        H  0.32305102  0.77551519  0.96949160     0.14900
H971        H  0.20753921  0.65177923  0.02353508     0.13200
H972        H  0.25845145  0.65170009  0.02044022     0.13200
H973        H  0.20864397  0.84226106  0.03723609     0.13200
H974        H  0.25957943  0.84216524  0.03408154     0.13200
H975        H  0.21071131  0.74789801  0.02040271     0.26500
H976        H  0.25547767  0.74780332  0.01725780     0.26500
C977        C  0.03451025  0.74859799  0.27168035     0.86800
C978        C  0.03219902  0.72499032  0.24852621    -0.53400
C979        C  0.51089641  0.72468324  0.22877430     0.09700
C980        C  0.49333338  0.74869884  0.23437460     0.20700
C981        C  0.03193840  0.77277135  0.24937511    -0.54200
C982        C  0.51067854  0.77292431  0.23004544     0.09800
C983        C  0.50901861  0.74756823  0.29116839    -0.53700
C984        C  0.48750628  0.74773135  0.27165110     0.10400
H985        H  0.04598533  0.70907017  0.24881525     0.14900
H986        H  0.47594175  0.74947592  0.21850813     0.00600
H987        H  0.04563277  0.78885527  0.24956392     0.15200
H988        H  0.50732788  0.74627313  0.31780990     0.15000
C989        C  0.20948448  0.00161512  0.22414507     0.86800
C990        C  0.21338186  0.97648250  0.24464662    -0.53400
C991        C  0.23495173  0.97619832  0.26405316     0.09700
C992        C  0.25133484  0.00134051  0.26043869     0.20700
C993        C  0.21142367  0.52428436  0.25069925    -0.54200
C994        C  0.23315942  0.52426212  0.26980065     0.09800
C995        C  0.23479327  0.00426798  0.20421080    -0.53700
C996        C  0.25645023  0.00414031  0.22323872     0.10400
H997        H  0.19983962  0.96029320  0.24408151     0.14900
H998        H  0.26930050  0.00138734  0.27527518     0.00600
H999        H  0.19702300  0.53959419  0.25211413     0.15200
H1000       H  0.23639351  0.00605742  0.17763991     0.15000
C1001       C  0.03744276  0.74685905  0.72949268     0.86800
C1002       C  0.03442709  0.76974709  0.75392723    -0.53400
C1003       C  0.51134092  0.77035956  0.77077319     0.09700
C1004       C  0.49328617  0.74729920  0.76169032     0.20700
C1005       C  0.03277312  0.72257242  0.75135819    -0.54200
C1006       C  0.50958382  0.72247850  0.76768423     0.09800
C1007       C  0.51342017  0.74869604  0.70725897    -0.53700
C1008       C  0.49040985  0.74911086  0.72364483     0.10400
H1009       H  0.04897065  0.78438897  0.75857031     0.14900
H1010       H  0.47473550  0.74706990  0.77529628     0.00600
H1011       H  0.04642796  0.70661954  0.75364189     0.15200
H1012       H  0.51474167  0.74929013  0.68044280     0.15000
C1013       C  0.21185063  0.99858289  0.76717669     0.86800
C1014       C  0.21575973  0.52197768  0.74583084    -0.53400
C1015       C  0.23823423  0.52227059  0.72840726     0.09700
C1016       C  0.25484739  0.99745720  0.73290715     0.20700
C1017       C  0.21391921  0.97541500  0.74335895    -0.54200
C1018       C  0.23641167  0.97433755  0.72607249     0.09800
C1019       C  0.23658165  0.99707919  0.78829787    -0.53700
C1020       C  0.25925064  0.99650183  0.77068223     0.10400
H1021       H  0.20234573  0.53795508  0.74311927     0.14900
H1022       H  0.27256883  0.99737257  0.71770437     0.00600
H1023       H  0.19918308  0.96043205  0.74119762     0.15200
H1024       H  0.23598487  0.99649543  0.81513814     0.15000
C1025       C  0.10011965  0.52465211  0.14146721    -0.01700
C1026       C  0.11142750  0.00118646  0.15162614     0.06900
C1027       C  0.10075117  0.97701974  0.14275039    -0.07700
C1028       C  0.07890542  0.97584397  0.12249083     0.04300
C1029       C  0.06724184  0.99914422  0.11136237    -0.14900
C1030       C  0.07813106  0.52338497  0.12149528    -0.08200
C1031       C  0.13632959  0.00157025  0.16954469     0.05300
C1032       C  0.13664974  0.99843344  0.20389628    -0.09400
C1033       C  0.15991973  0.99835068  0.22147774     0.00300
C1034       C  0.18384288  0.00153973  0.20470574     0.00100
C1035       C  0.18379988  0.50525295  0.17084624    -0.12900
C1036       C  0.16051740  0.50508512  0.15329224     0.00600
C1037       C  0.15851819  0.99415312  0.25677770     0.39900
C1038       C  0.16103824  0.50792520  0.11769135     0.36500
C1039       C  0.11035506  0.54999830  0.14988408     0.36300
C1040       C  0.06960305  0.95061788  0.11194415     0.37000
N1041       N  0.15731695  0.99029942  0.28497274    -0.43800
N1042       N  0.16121221  0.51014575  0.08917688    -0.44200
N1043       N  0.06229971  0.93041134  0.10325721    -0.41600
N1044       N  0.11843316  0.57040509  0.15648319    -0.43000
H1045       H  0.06937670  0.54130168  0.11246847     0.13100
H1046       H  0.11011683  0.95908734  0.15057942     0.09600
H1047       H  0.11859715  0.99589589  0.21702450     0.10700
H1048       H  0.20109684  0.50789184  0.15657491     0.16500
C1049       C  0.37732417  0.00471757  0.16181335    -0.01700
C1050       C  0.35183547  0.00834044  0.15080444     0.06900
C1051       C  0.34766721  0.51094601  0.11882951    -0.07700
C1052       C  0.36744478  0.50874650  0.09552717     0.04300
C1053       C  0.39272585  0.00439341  0.10445049    -0.14900
C1054       C  0.39744500  0.00290335  0.13876719    -0.08200
C1055       C  0.32939157  0.00824714  0.17364042     0.05300
C1056       C  0.31439330  0.53150492  0.17711579    -0.09400
C1057       C  0.29110275  0.53087716  0.19463593     0.00300
C1058       C  0.28244650  0.00668882  0.20865725     0.00100
C1059       C  0.29842936  0.98469457  0.20800035    -0.12900
C1060       C  0.32170848  0.98525096  0.19050774     0.00600
C1061       C  0.27574626  0.55433947  0.19626585     0.39900
C1062       C  0.33670061  0.96159060  0.18858352     0.36500
C1063       C  0.38323416  0.00249407  0.19661114     0.36300
C1064       C  0.36003654  0.51027071  0.06108605     0.37000
N1065       N  0.26355859  0.57318874  0.19805509    -0.43800
N1066       N  0.34897300  0.94279462  0.18697890    -0.44200
N1067       N  0.35394804  0.51121768  0.03355653    -0.41600
N1068       N  0.38790998  0.00045007  0.22449944    -0.43000
H1069       H  0.41686020  0.99986370  0.14778053     0.13100
H1070       H  0.32797424  0.51336507  0.11042336     0.09600
H1071       H  0.31997000  0.54912508  0.16383363     0.10700
H1072       H  0.29215602  0.96672172  0.21994225     0.16500
C1073       C  0.00720523  0.88835904  0.15472880    -0.01700
C1074       C  0.49128240  0.86620086  0.15208851     0.06900
C1075       C  0.47032713  0.86694126  0.13028924    -0.07700
C1076       C  0.46608383  0.88869448  0.10981254     0.04300
C1077       C  0.48275696  0.91050117  0.11131347    -0.14900
C1078       C  0.00281750  0.91035749  0.13453306    -0.08200
C1079       C  0.49585791  0.84195476  0.17173119     0.05300
C1080       C  0.99162179  0.84246311  0.20634536    -0.09400
C1081       C  0.99574061  0.81996890  0.22559818     0.00300
C1082       C  0.50377144  0.79628500  0.21008338     0.00100
C1083       C  0.50729757  0.79580588  0.17574147    -0.12900
C1084       C  0.50359932  0.81844862  0.15653922     0.00600
C1085       C  0.99222257  0.82156944  0.26096525     0.39900
C1086       C  0.50890301  0.81741448  0.12151537     0.36500
C1087       C  0.02933409  0.88827172  0.17632771     0.36300
C1088       C  0.44451001  0.88811362  0.08734391     0.37000
N1089       N  0.98940102  0.82296682  0.28930033    -0.43800
N1090       N  0.51329909  0.81659381  0.09347383    -0.44200
N1091       N  0.42720768  0.88753432  0.06936018    -0.41600
N1092       N  0.04714847  0.88822684  0.19350722    -0.43000
H1093       H  0.01584436  0.92689888  0.13575589     0.13100
H1094       H  0.45753540  0.85020339  0.12882013     0.09600
H1095       H  0.98563567  0.86044256  0.21812355     0.10700
H1096       H  0.51374919  0.77794388  0.16408621     0.16500
C1097       C  0.48178055  0.63531185  0.11549663    -0.01700
C1098       C  0.49402551  0.63321303  0.14642950     0.06900
C1099       C  0.00413607  0.60904027  0.15646015    -0.07700
C1100       C  0.00164467  0.58680660  0.13642036     0.04300
C1101       C  0.48836846  0.58858030  0.10570148    -0.14900
C1102       C  0.47879615  0.61316892  0.09572596    -0.08200
C1103       C  0.49830897  0.65667979  0.16730366     0.05300
C1104       C  0.47737736  0.66837618  0.18326567    -0.09400
C1105       C  0.48063846  0.69088265  0.20256001     0.00300
C1106       C  0.50541156  0.70219717  0.20615204     0.00100
C1107       C  0.02616238  0.69091536  0.18907024    -0.12900
C1108       C  0.02284189  0.66843673  0.16986941     0.00600
C1109       C  0.45818295  0.70112703  0.21886361     0.39900
C1110       C  0.04465648  0.65787335  0.15236368     0.36500
C1111       C  0.47346460  0.66032725  0.10268863     0.36300
C1112       C  0.01433863  0.56308780  0.14692858     0.37000
N1113       N  0.43972615  0.70903093  0.23126104    -0.43800
N1114       N  0.06193143  0.64924304  0.13808204    -0.44200
N1115       N  0.02468734  0.54420928  0.15549277    -0.41600
N1116       N  0.46711198  0.68044324  0.09231416    -0.43000
H1117       H  0.46926024  0.61530486  0.07199633     0.13100
H1118       H  0.01451641  0.60765436  0.17968480     0.09600
H1119       H  0.45839789  0.65974102  0.18076215     0.10700
H1120       H  0.04518195  0.69955493  0.19075271     0.16500
C1121       C  0.11174380  0.89993676  0.02303461    -0.01700
C1122       C  0.10784894  0.87413093  0.01241412     0.06900
C1123       C  0.08377883  0.86641181  0.00044865    -0.07700
C1124       C  0.06360586  0.88428589  0.99801021     0.04300
C1125       C  0.06747162  0.91045538  0.00826734    -0.14900
C1126       C  0.09157749  0.91778959  0.02109588    -0.08200
C1127       C  0.12881231  0.85491998  0.01235832     0.05300
C1128       C  0.12804453  0.83428255  0.03528819    -0.09400
C1129       C  0.14678864  0.81479299  0.03475139     0.00300
C1130       C  0.16656884  0.81596354  0.01088235     0.00100
C1131       C  0.16725920  0.83662748  0.98793340    -0.12900
C1132       C  0.14855385  0.85611620  0.98851339     0.00600
C1133       C  0.14523973  0.79370157  0.05861514     0.39900
C1134       C  0.14968673  0.87681031  0.96405372     0.36500
C1135       C  0.13627407  0.90859493  0.03571610     0.36300
C1136       C  0.03980808  0.87528784  0.98345497     0.37000
N1137       N  0.14389507  0.77665332  0.07751504    -0.43800
N1138       N  0.15071261  0.89341293  0.94449509    -0.44200
N1139       N  0.02088885  0.86782081  0.97168625    -0.41600
N1140       N  0.15591968  0.91570673  0.04572584    -0.43000
H1141       H  0.09480415  0.93760713  0.02955056     0.13100
H1142       H  0.08100627  0.84647671  0.99212724     0.09600
H1143       H  0.11266044  0.83334514  0.05340785     0.10700
H1144       H  0.18235062  0.83735235  0.96940118     0.16500
C1145       C  0.38072152  0.87039229  0.98019893    -0.01700
C1146       C  0.35936351  0.87241286  0.00139243     0.06900
C1147       C  0.35751572  0.89326673  0.02342787    -0.07700
C1148       C  0.37651750  0.91252998  0.02414923     0.04300
C1149       C  0.39770795  0.91092269  0.00242498    -0.14900
C1150       C  0.39982022  0.88960467  0.98093887    -0.08200
C1151       C  0.33879960  0.85273529  0.00141248     0.05300
C1152       C  0.33885016  0.83348567  0.02617455    -0.09400
C1153       C  0.31944254  0.81463122  0.02737141     0.00300
C1154       C  0.29948725  0.81533962  0.00374949     0.00100
C1155       C  0.29943340  0.83468958  0.97903460    -0.12900
C1156       C  0.31908191  0.85329110  0.97755433     0.00600
C1157       C  0.32040237  0.79481423  0.05295565     0.39900
C1158       C  0.31880781  0.87259539  0.95131750     0.36500
C1159       C  0.38332486  0.84879377  0.95765092     0.36300
C1160       C  0.37446777  0.93284102  0.04858821     0.37000
N1161       N  0.32139248  0.77892961  0.07344226    -0.43800
N1162       N  0.31868602  0.88795587  0.93015968    -0.44200
N1163       N  0.37272648  0.94879132  0.06859113    -0.41600
N1164       N  0.38528976  0.83144479  0.93961343    -0.43000
H1165       H  0.41616235  0.88822346  0.96433905     0.13100
H1166       H  0.34121544  0.89439792  0.04013367     0.09600
H1167       H  0.35415716  0.83316231  0.04442286     0.10700
H1168       H  0.28419637  0.83499142  0.96069963     0.16500
C1169       C  0.38526270  0.62887303  0.01124906    -0.01700
C1170       C  0.35980455  0.62419536  0.00071103     0.06900
C1171       C  0.35351240  0.59972290  0.98747800    -0.07700
C1172       C  0.37189019  0.57991713  0.98492607     0.04300
C1173       C  0.39712142  0.58403149  0.99716314    -0.14900
C1174       C  0.40341162  0.60872698  0.01010782    -0.08200
C1175       C  0.33967288  0.64478534  0.00095965     0.05300
C1176       C  0.32713462  0.65076939  0.97107202    -0.09400
C1177       C  0.30701427  0.66879444  0.97000686     0.00300
C1178       C  0.29955680  0.68168921  0.99906647     0.00100
C1179       C  0.31202804  0.67594272  0.02899489    -0.12900
C1180       C  0.33173840  0.65733816  0.03029704     0.00600
C1181       C  0.29401463  0.67344168  0.93898207     0.39900
C1182       C  0.34271797  0.65077777  0.06210716     0.36500
C1183       C  0.39367048  0.65446295  0.02163026     0.36300
C1184       C  0.36444736  0.55635854  0.96785688     0.37000
N1185       N  0.28355333  0.67696394  0.91408520    -0.43800
N1186       N  0.35158109  0.64560716  0.08758880    -0.44200
N1187       N  0.35818420  0.53777293  0.95378027    -0.41600
N1188       N  0.40053522  0.67495713  0.02982865    -0.43000
H1189       H  0.42272871  0.61251834  0.01904435     0.13100
H1190       H  0.33415636  0.59625066  0.97842220     0.09600
H1191       H  0.33291609  0.64104306  0.94850809     0.10700
H1192       H  0.30600373  0.68570654  0.05143328     0.16500
C1193       C  0.08121729  0.62873771  0.98862211    -0.01700
C1194       C  0.10557536  0.62416783  0.00260894     0.06900
C1195       C  0.11084838  0.60019445  0.01792343    -0.07700
C1196       C  0.09223445  0.58049864  0.01927031     0.04300
C1197       C  0.06785017  0.58463939  0.00451803    -0.14900
C1198       C  0.06252610  0.60906670  0.98979818    -0.08200
C1199       C  0.12585905  0.64427575  0.00222033     0.05300
C1200       C  0.12832237  0.66070645  0.02961571    -0.09400
C1201       C  0.14804291  0.67927948  0.03086054     0.00300
C1202       C  0.16553716  0.68144061  0.00430793     0.00100
C1203       C  0.16309417  0.66492660  0.97697650    -0.12900
C1204       C  0.14339469  0.64634588  0.97576427     0.00600
C1205       C  0.15030966  0.69553575  0.05978155     0.39900
C1206       C  0.14160439  0.62954205  0.94731840     0.36500
C1207       C  0.07525554  0.65319857  0.97233223     0.36300
C1208       C  0.09852316  0.55684189  0.03718509     0.37000
N1209       N  0.15214971  0.70849859  0.08301526    -0.43800
N1210       N  0.14024622  0.61611574  0.92446078    -0.44200
N1211       N  0.10383528  0.53804718  0.05171575    -0.41600
N1212       N  0.07054819  0.67273605  0.95907432    -0.43000
H1213       H  0.04393468  0.61264938  0.97846742     0.13100
H1214       H  0.12957443  0.59697388  0.02908200     0.09600
H1215       H  0.11494733  0.65882295  0.05010973     0.10700
H1216       H  0.17656009  0.66667768  0.95657045     0.16500
C1217       C  0.37891652  0.51268002  0.83755723    -0.01700
C1218       C  0.35689762  0.49700208  0.84306425     0.06900
C1219       C  0.35665734  0.97927749  0.86830110    -0.07700
C1220       C  0.37723872  0.97788398  0.89053637     0.04300
C1221       C  0.39893091  0.49487907  0.88778738    -0.14900
C1222       C  0.39974671  0.51151639  0.85988648    -0.08200
C1223       C  0.33298692  0.49923283  0.82286932     0.05300
C1224       C  0.33086942  0.98492016  0.79173578    -0.09400
C1225       C  0.30731708  0.98377234  0.77460481     0.00300
C1226       C  0.28527666  0.99685415  0.78717323     0.00100
C1227       C  0.28777606  0.51120919  0.81815363    -0.12900
C1228       C  0.31120825  0.51226140  0.83525447     0.00600
C1229       C  0.30663823  0.96806429  0.74513765     0.39900
C1230       C  0.31241430  0.52667138  0.86580570     0.36500
C1231       C  0.38025045  0.53047436  0.80973509     0.36300
C1232       C  0.37548347  0.95918277  0.91735865     0.37000
N1233       N  0.30692580  0.95548951  0.72144497    -0.43800
N1234       N  0.31336951  0.53821050  0.89029733    -0.44200
N1235       N  0.37378615  0.94406808  0.93867616    -0.41600
N1236       N  0.38143976  0.54467407  0.78736112    -0.43000
H1237       H  0.41622036  0.52425269  0.85616785     0.13100
H1238       H  0.33983098  0.96706134  0.87229946     0.09600
H1239       H  0.34733086  0.97412205  0.78264013     0.10700
H1240       H  0.27147743  0.52178795  0.82802110     0.16500
C1241       C  0.14757678  0.51720734  0.81149966    -0.01700
C1242       C  0.14133431  0.49451866  0.82985130     0.06900
C1243       C  0.15816637  0.97522940  0.82778455    -0.07700
C1244       C  0.18052349  0.97561046  0.80818645     0.04300
C1245       C  0.18689235  0.99786969  0.78845174    -0.14900
C1246       C  0.16986117  0.51803352  0.79172667    -0.08200
C1247       C  0.11817500  0.49328982  0.85218799     0.05300
C1248       C  0.09377001  0.00047728  0.83896843    -0.09400
C1249       C  0.07192057  0.00083781  0.85959626     0.00300
C1250       C  0.07386495  0.49385985  0.89434665     0.00100
C1251       C  0.09862679  0.48817168  0.90682730    -0.12900
C1252       C  0.12049082  0.48812237  0.88640883     0.00600
C1253       C  0.04753744  0.00721702  0.84449156     0.39900
C1254       C  0.14530250  0.48391315  0.90160128     0.36500
C1255       C  0.13193267  0.54044681  0.81369551     0.36300
C1256       C  0.19640769  0.95251211  0.80888466     0.37000
N1257       N  0.02809059  0.01240393  0.83216121    -0.43800
N1258       N  0.16519197  0.48060229  0.91378169    -0.44200
N1259       N  0.20878733  0.93374902  0.80943679    -0.41600
N1260       N  0.11927745  0.55896458  0.81559130    -0.43000
H1261       H  0.17385374  0.53622754  0.77921430     0.13100
H1262       H  0.15368977  0.95791819  0.84235363     0.09600
H1263       H  0.09149539  0.00404645  0.81265105     0.10700
H1264       H  0.10118708  0.48412903  0.93298521     0.16500
C1265       C  0.00819667  0.60798003  0.84537729    -0.01700
C1266       C  0.49197933  0.62997372  0.84870593     0.06900
C1267       C  0.47238534  0.62910263  0.87253460    -0.07700
C1268       C  0.46916078  0.60725480  0.89323325     0.04300
C1269       C  0.48573466  0.58545478  0.89037598    -0.14900
C1270       C  0.00493379  0.58601082  0.86612785    -0.08200
C1271       C  0.49522733  0.65428038  0.82827206     0.05300
C1272       C  0.99165595  0.65318758  0.79383049    -0.09400
C1273       C  0.99469544  0.67564249  0.77396342     0.00300
C1274       C  0.50166003  0.69972503  0.78845481     0.00100
C1275       C  0.50457104  0.70100922  0.82286369    -0.12900
C1276       C  0.50138730  0.67860831  0.84279500     0.00600
C1277       C  0.98973239  0.67384950  0.73892082     0.39900
C1278       C  0.50582365  0.68081302  0.87791843     0.36500
C1279       C  0.02917794  0.60795605  0.82200629     0.36300
C1280       C  0.44822354  0.60754368  0.91671543     0.37000
N1281       N  0.98529170  0.67258975  0.71092271    -0.43800
N1282       N  0.50945137  0.68259234  0.90606093    -0.44200
N1283       N  0.43127116  0.60792658  0.93525447    -0.41600
N1284       N  0.04609554  0.60776979  0.80339301    -0.43000
H1285       H  0.01808805  0.56965703  0.86416242     0.13100
H1286       H  0.45960192  0.64570345  0.87509268     0.09600
H1287       H  0.98639668  0.63478328  0.78248805     0.10700
H1288       H  0.51028746  0.71934064  0.83404319     0.16500
C1289       C  0.47827919  0.86054606  0.88294209    -0.01700
C1290       C  0.49502324  0.86079051  0.85551916     0.06900
C1291       C  0.00965446  0.88332913  0.84886063    -0.07700
C1292       C  0.00725541  0.90575215  0.86859739     0.04300
C1293       C  0.48961274  0.90596248  0.89553625    -0.14900
C1294       C  0.47553312  0.88298080  0.90239361    -0.08200
C1295       C  0.49893171  0.83692672  0.83497015     0.05300
C1296       C  0.47886701  0.82782693  0.81480587    -0.09400
C1297       C  0.48203884  0.80576792  0.79461005     0.00300
C1298       C  0.50558668  0.79192541  0.79477279     0.00100
C1299       C  0.02555921  0.80033496  0.81621556    -0.12900
C1300       C  0.02256091  0.82263057  0.83593682     0.00600
C1301       C  0.46132098  0.79901999  0.77253571     0.39900
C1302       C  0.04370188  0.83100182  0.85654012     0.36500
C1303       C  0.46491521  0.83695402  0.89272206     0.36300
C1304       C  0.02441919  0.92743640  0.86240263     0.37000
N1305       N  0.44445891  0.79399902  0.75499205    -0.43800
N1306       N  0.06051938  0.83808203  0.87299602    -0.44200
N1307       N  0.03849573  0.94459745  0.85761173    -0.41600
N1308       N  0.45450162  0.81788812  0.90061872    -0.43000
H1309       H  0.46267276  0.88233593  0.92352924     0.13100
H1310       H  0.02321043  0.88334208  0.82845626     0.09600
H1311       H  0.46084044  0.83846348  0.81419943     0.10700
H1312       H  0.04364751  0.78982845  0.81711337     0.16500
C1313       C  0.39672152  0.73578149  0.61577358    -0.01700
C1314       C  0.39642932  0.75018904  0.64537050     0.06900
C1315       C  0.37411098  0.76411090  0.65378090    -0.07700
C1316       C  0.35232472  0.76397541  0.63304499     0.04300
C1317       C  0.35262782  0.74969406  0.60322972    -0.14900
C1318       C  0.37504705  0.73567742  0.59504813    -0.08200
C1319       C  0.41943495  0.75103127  0.66748823     0.05300
C1320       C  0.43868181  0.76974435  0.66153042    -0.09400
C1321       C  0.46139896  0.76998645  0.68034304     0.00300
C1322       C  0.46536009  0.75104139  0.70554802     0.00100
C1323       C  0.44563676  0.73293908  0.71230304    -0.12900
C1324       C  0.42290234  0.73271563  0.69336808     0.00600
C1325       C  0.48012289  0.79032456  0.67397697     0.39900
C1326       C  0.40361748  0.71306016  0.70011662     0.36500
C1327       C  0.41915592  0.72101099  0.60621180     0.36300
C1328       C  0.33044302  0.77978358  0.64189411     0.37000
N1329       N  0.49532053  0.80649392  0.66923251    -0.43800
N1330       N  0.38803710  0.69734935  0.70523057    -0.44200
N1331       N  0.31278203  0.79245255  0.64853180    -0.41600
N1332       N  0.43718071  0.70918981  0.59872760    -0.43000
H1333       H  0.37567321  0.72457950  0.57228559     0.13100
H1334       H  0.37384806  0.77538423  0.67639338     0.09600
H1335       H  0.43603985  0.78404782  0.64189379     0.10700
H1336       H  0.44834285  0.71839993  0.73163085     0.16500
C1337       C  0.10186434  0.76740267  0.68788391    -0.01700
C1338       C  0.10825802  0.74500604  0.66958665     0.06900
C1339       C  0.09174118  0.72335013  0.67099977    -0.07700
C1340       C  0.06893902  0.72382286  0.68950211     0.04300
C1341       C  0.06259995  0.74593059  0.70902825    -0.14900
C1342       C  0.07938057  0.76775132  0.70711450    -0.08200
C1343       C  0.13109897  0.74429650  0.64713750     0.05300
C1344       C  0.15590948  0.74836239  0.65993067    -0.09400
C1345       C  0.17769433  0.74851684  0.63926819     0.00300
C1346       C  0.17500067  0.74404210  0.60485935     0.00100
C1347       C  0.14997895  0.73934404  0.59245840    -0.12900
C1348       C  0.12829338  0.73974848  0.61297508     0.00600
C1349       C  0.20223500  0.75434397  0.65414795     0.39900
C1350       C  0.10319302  0.73649406  0.59809756     0.36500
C1351       C  0.11749971  0.79077705  0.68628134     0.36300
C1352       C  0.05215941  0.70144115  0.68669940     0.37000
N1353       N  0.22182136  0.75928071  0.66621854    -0.43800
N1354       N  0.08301183  0.73391874  0.58643923    -0.44200
N1355       N  0.53875595  0.68341763  0.68405306    -0.41600
N1356       N  0.13004147  0.80948679  0.68512591    -0.43000
H1357       H  0.07487892  0.78586443  0.71920606     0.13100
H1358       H  0.09638344  0.70610221  0.65673116     0.09600
H1359       H  0.15823241  0.75175922  0.68621788     0.10700
H1360       H  0.14704257  0.73577989  0.56631632     0.16500
C1361       C  0.26546920  0.61184042  0.61376801    -0.01700
C1362       C  0.25780846  0.61431962  0.64695850     0.06900
C1363       C  0.25350563  0.63937146  0.65971553    -0.07700
C1364       C  0.25594088  0.66181313  0.63955951     0.04300
C1365       C  0.26295103  0.65937260  0.60575278    -0.14900
C1366       C  0.26811282  0.63407015  0.59372246    -0.08200
C1367       C  0.25289084  0.59074009  0.66788529     0.05300
C1368       C  0.27030122  0.58383826  0.69293681    -0.09400
C1369       C  0.26639759  0.56127818  0.71240539     0.00300
C1370       C  0.24497851  0.54484351  0.70638891     0.00100
C1371       C  0.22757049  0.55194896  0.68128925    -0.12900
C1372       C  0.23118697  0.57477856  0.66244603     0.00600
C1373       C  0.28366943  0.55674147  0.73974336     0.39900
C1374       C  0.21178493  0.58228347  0.63868878     0.36500
C1375       C  0.27028291  0.58650405  0.59953119     0.36300
C1376       C  0.25049354  0.68675227  0.65434741     0.37000
N1377       N  0.29775270  0.55403879  0.76165861    -0.43800
N1378       N  0.19629054  0.58876965  0.61981582    -0.44200
N1379       N  0.24621936  0.70659973  0.66669864    -0.41600
N1380       N  0.27397530  0.56615431  0.58817091    -0.43000
H1381       H  0.27390532  0.63137502  0.56820446     0.13100
H1382       H  0.24756333  0.64132996  0.68530499     0.09600
H1383       H  0.28679451  0.59631846  0.69756590     0.10700
H1384       H  0.21066616  0.53996298  0.67703487     0.16500
C1385       C  0.23924761  0.85793766  0.65292727    -0.01700
C1386       C  0.25337534  0.88124425  0.64752691     0.06900
C1387       C  0.27184473  0.88188773  0.62223955    -0.07700
C1388       C  0.27556142  0.86041191  0.60149200     0.04300
C1389       C  0.26066932  0.83745736  0.60582338    -0.14900
C1390       C  0.24306179  0.83625743  0.63223020    -0.08200
C1391       C  0.24911204  0.90536573  0.66746465     0.05300
C1392       C  0.25420781  0.90494921  0.70157560    -0.09400
C1393       C  0.25109347  0.92749158  0.72076613     0.00300
C1394       C  0.24280506  0.95108731  0.70584981     0.00100
C1395       C  0.23786446  0.95161140  0.67179716    -0.12900
C1396       C  0.24089834  0.92904945  0.65259079     0.00600
C1397       C  0.25734696  0.92616003  0.75553805     0.39900
C1398       C  0.23444686  0.93041056  0.61788808     0.36500
C1399       C  0.21984636  0.85633131  0.67843539     0.36300
C1400       C  0.29511544  0.86237123  0.57619002     0.37000
N1401       N  0.26290530  0.92511940  0.78324051    -0.43800
N1402       N  0.22919358  0.93149804  0.59009202    -0.44200
N1403       N  0.31085085  0.86401637  0.55601992    -0.41600
N1404       N  0.20430742  0.85520829  0.69891465    -0.43000
H1405       H  0.23145194  0.81881424  0.63579009     0.13100
H1406       H  0.28324070  0.89944808  0.61845366     0.09600
H1407       H  0.26088080  0.88701918  0.71316943     0.10700
H1408       H  0.23100306  0.96952584  0.66035099     0.16500
C1409       C  0.42932120  0.60551121  0.47533243    -0.01700
C1410       C  0.41331918  0.61037058  0.50270389     0.06900
C1411       C  0.41634508  0.59583976  0.53194568    -0.07700
C1412       C  0.43506325  0.57633998  0.53410669     0.04300
C1413       C  0.45079947  0.57118838  0.50654526    -0.14900
C1414       C  0.44795588  0.58595102  0.47743798    -0.08200
C1415       C  0.39258874  0.62985338  0.50086617     0.05300
C1416       C  0.36764657  0.62124498  0.49391116    -0.09400
C1417       C  0.34725702  0.63891677  0.49186628     0.00300
C1418       C  0.35180181  0.66595436  0.49711431     0.00100
C1419       C  0.37709388  0.67436530  0.50392158    -0.12900
C1420       C  0.39738123  0.65656988  0.50587744     0.00600
C1421       C  0.32214716  0.62850919  0.48396424     0.39900
C1422       C  0.42284003  0.66605865  0.51369947     0.36500
C1423       C  0.42652505  0.61995834  0.44473404     0.36300
C1424       C  0.43790042  0.56197212  0.56474565     0.37000
N1425       N  0.30200374  0.62016954  0.47779936    -0.43800
N1426       N  0.44319384  0.67372959  0.52008336    -0.44200
N1427       N  0.44019940  0.55060909  0.58942320    -0.41600
N1428       N  0.42426726  0.63155172  0.42022092    -0.43000
H1429       H  0.46003201  0.58182696  0.45622291     0.13100
H1430       H  0.40396910  0.59967878  0.55296520     0.09600
H1431       H  0.36415675  0.60057887  0.48994186     0.10700
H1432       H  0.38110422  0.69486779  0.50827491     0.16500
C1433       C  0.11845625  0.58439728  0.52597280    -0.01700
C1434       C  0.12305894  0.59989436  0.49763662     0.06900
C1435       C  0.10817808  0.59635307  0.46913942    -0.07700
C1436       C  0.08825852  0.57799898  0.46888232     0.04300
C1437       C  0.08345563  0.56270631  0.49734314    -0.14900
C1438       C  0.09883907  0.56570958  0.52552202    -0.08200
C1439       C  0.14263896  0.62069756  0.49765846     0.05300
C1440       C  0.16599148  0.61641744  0.48143917    -0.09400
C1441       C  0.18490953  0.63584693  0.48052826     0.00300
C1442       C  0.18077411  0.65977207  0.49708270     0.00100
C1443       C  0.15697567  0.66411949  0.51269636    -0.12900
C1444       C  0.13784364  0.64489753  0.51273276     0.00600
C1445       C  0.20742270  0.63130943  0.46044982     0.39900
C1446       C  0.11317603  0.65052095  0.52752897     0.36500
C1447       C  0.13312416  0.58793120  0.55593455     0.36300
C1448       C  0.07277900  0.57540397  0.43944657     0.37000
N1449       N  0.22521178  0.62759041  0.44393818    -0.43800
N1450       N  0.09327207  0.65485876  0.53907678    -0.44200
N1451       N  0.06036740  0.57341111  0.41583064    -0.41600
N1452       N  0.14472789  0.59101720  0.58002153    -0.43000
H1453       H  0.09507580  0.55386037  0.54736156     0.13100
H1454       H  0.11176872  0.60838714  0.44741176     0.09600
H1455       H  0.16921403  0.59800188  0.46895967     0.10700
H1456       H  0.15324453  0.68259466  0.52478445     0.16500
C1457       C  0.10787311  0.90159267  0.53521945    -0.01700
C1458       C  0.11498883  0.89079745  0.50448327     0.06900
C1459       C  0.10169965  0.89835536  0.47575381    -0.07700
C1460       C  0.08187957  0.91677807  0.47720657     0.04300
C1461       C  0.07476425  0.92747290  0.50786415    -0.14900
C1462       C  0.08784512  0.91982196  0.53665774    -0.08200
C1463       C  0.13592449  0.87128634  0.50168722     0.05300
C1464       C  0.12966489  0.84573957  0.49232248    -0.09400
C1465       C  0.14871197  0.82658131  0.48927996     0.00300
C1466       C  0.17473791  0.83276979  0.49664300     0.00100
C1467       C  0.18090340  0.85870371  0.50504623    -0.12900
C1468       C  0.16189802  0.87793226  0.50709084     0.00600
C1469       C  0.14089171  0.80122727  0.47726499     0.39900
C1470       C  0.16972761  0.90452752  0.51339597     0.36500
C1471       C  0.12063775  0.89412609  0.56556993     0.36300
C1472       C  0.06995287  0.92563727  0.44690125     0.37000
N1473       N  0.13458765  0.78101877  0.46737094    -0.43800
N1474       N  0.17631914  0.92580449  0.51807707    -0.44200
N1475       N  0.06039376  0.93322161  0.42283889    -0.41600
N1476       N  0.13080278  0.88825296  0.58998107    -0.43000
H1477       H  0.08265223  0.92846163  0.56015636     0.13100
H1478       H  0.10722844  0.89025269  0.45207690     0.09600
H1479       H  0.10975895  0.84081309  0.48713556     0.10700
H1480       H  0.20069176  0.86413742  0.51007445     0.16500
C1481       C  0.38978231  0.85350604  0.50668666    -0.01700
C1482       C  0.38412614  0.87848730  0.49376513     0.06900
C1483       C  0.36054491  0.88279595  0.47791119    -0.07700
C1484       C  0.34195649  0.86297195  0.47648018     0.04300
C1485       C  0.34682751  0.83840074  0.49157553    -0.14900
C1486       C  0.37116698  0.83377368  0.50566534    -0.08200
C1487       C  0.40246124  0.90042167  0.49753699     0.05300
C1488       C  0.41494698  0.91060022  0.46950533    -0.09400
C1489       C  0.43412179  0.92965637  0.47280743     0.00300
C1490       C  0.44120730  0.93832313  0.50456513     0.00100
C1491       C  0.42784251  0.92913819  0.53240016    -0.12900
C1492       C  0.40830972  0.91052851  0.52906136     0.00600
C1493       C  0.44621407  0.94022893  0.44345769     0.39900
C1494       C  0.39425742  0.90228080  0.55816094     0.36500
C1495       C  0.41458898  0.84782271  0.52117856     0.36300
C1496       C  0.31843231  0.86821650  0.45862607     0.37000
N1497       N  0.45577670  0.94899348  0.42000822    -0.43800
N1498       N  0.38282349  0.89575299  0.58137160    -0.44200
N1499       N  0.29962803  0.87235868  0.44419645    -0.41600
N1500       N  0.43453004  0.84352681  0.53271684    -0.43000
H1501       H  0.37551807  0.81488592  0.51664264     0.13100
H1502       H  0.35651379  0.90182647  0.46712240     0.09600
H1503       H  0.41004450  0.90329394  0.44517881     0.10700
H1504       H  0.43284084  0.93639913  0.55671777     0.16500
C1505       C  0.15178712  0.76606846  0.34301878    -0.01700
C1506       C  0.13119685  0.74829343  0.34739673     0.06900
C1507       C  0.13325835  0.72878289  0.37174842    -0.07700
C1508       C  0.15454355  0.72761950  0.39284416     0.04300
C1509       C  0.17483026  0.74592455  0.38936269    -0.14900
C1510       C  0.17345035  0.76466369  0.36382613    -0.08200
C1511       C  0.10677891  0.75010543  0.32809529     0.05300
C1512       C  0.10710397  0.74670522  0.29374379    -0.09400
C1513       C  0.08418342  0.74653192  0.27534824     0.00300
C1514       C  0.05992281  0.74927926  0.29139289     0.00100
C1515       C  0.06006447  0.75402466  0.32574506    -0.12900
C1516       C  0.08297660  0.75413063  0.34399029     0.00600
C1517       C  0.08629519  0.74307781  0.23999417     0.39900
C1518       C  0.08154332  0.75839419  0.37924695     0.36500
C1519       C  0.15058693  0.78656009  0.31835394     0.36300
C1520       C  0.15487301  0.70727729  0.41774704     0.37000
N1521       N  0.08791237  0.74002664  0.21172122    -0.43800
N1522       N  0.08045871  0.76150685  0.40754363    -0.44200
N1523       N  0.15451577  0.69077219  0.43744299    -0.41600
N1524       N  0.14954945  0.80291416  0.29847239    -0.43000
H1525       H  0.18879770  0.77890987  0.36102046     0.13100
H1526       H  0.11776823  0.71471078  0.37479533     0.09600
H1527       H  0.12534429  0.74370901  0.28129795     0.10700
H1528       H  0.04252222  0.75811025  0.33893748     0.16500
C1529       C  0.39043848  0.76890671  0.36744173    -0.01700
C1530       C  0.39009916  0.75227928  0.33976384     0.06900
C1531       C  0.36910522  0.73534428  0.33528235    -0.07700
C1532       C  0.34861674  0.73479380  0.35795716     0.04300
C1533       C  0.34897590  0.75145662  0.38571927    -0.14900
C1534       C  0.37001789  0.76838898  0.39005807    -0.08200
C1535       C  0.41309263  0.74990374  0.31812091     0.05300
C1536       C  0.42891320  0.72797935  0.32233408    -0.09400
C1537       C  0.45270680  0.72637690  0.30626431     0.00300
C1538       C  0.46112069  0.74711000  0.28569668     0.00100
C1539       C  0.44450224  0.76816186  0.27955223    -0.12900
C1540       C  0.42066424  0.76980814  0.29573369     0.00600
C1541       C  0.46758504  0.70276118  0.31010424     0.39900
C1542       C  0.40462854  0.79231058  0.28952685     0.36500
C1543       C  0.41222831  0.78564482  0.37405836     0.36300
C1544       C  0.32842835  0.71568509  0.35351451     0.37000
N1545       N  0.47912163  0.68354573  0.31284378    -0.43800
N1546       N  0.39195661  0.81046018  0.28435316    -0.44200
N1547       N  0.31230110  0.70028522  0.35019664    -0.41600
N1548       N  0.42978132  0.79893835  0.37931957    -0.43000
H1549       H  0.37064782  0.78108456  0.41143190     0.13100
H1550       H  0.36913294  0.72197337  0.31457650     0.09600
H1551       H  0.42293003  0.71236779  0.33895461     0.10700
H1552       H  0.45052783  0.78376736  0.26299105     0.16500
C1553       C  0.23583808  0.88155568  0.37664225    -0.01700
C1554       C  0.25197386  0.88499194  0.34885251     0.06900
C1555       C  0.27017364  0.86547105  0.34164146    -0.07700
C1556       C  0.27246252  0.84293024  0.36164357     0.04300
C1557       C  0.25615929  0.83949840  0.38928915    -0.14900
C1558       C  0.23801826  0.85904046  0.39638450    -0.08200
C1559       C  0.24937844  0.90828522  0.32646078     0.05300
C1560       C  0.25413347  0.93353258  0.33860621    -0.09400
C1561       C  0.25013826  0.95587013  0.31873254     0.00300
C1562       C  0.24145292  0.95319042  0.28572022     0.00100
C1563       C  0.23727962  0.92779246  0.27351293    -0.12900
C1564       C  0.24099359  0.90558478  0.29350613     0.00600
C1565       C  0.25367204  0.98118336  0.33363946     0.39900
C1566       C  0.23489915  0.88017512  0.28025615     0.36500
C1567       C  0.21659905  0.90065549  0.38529115     0.36300
C1568       C  0.29267613  0.82448371  0.35457916     0.37000
N1569       N  0.25659459  0.00138077  0.34582686    -0.43800
N1570       N  0.23003007  0.85965123  0.27011878    -0.44200
N1571       N  0.30901485  0.80977574  0.34918594    -0.41600
N1572       N  0.20118784  0.91587777  0.39253356    -0.43000
H1573       H  0.22548237  0.85674642  0.41768796     0.13100
H1574       H  0.28283886  0.86803270  0.32053575     0.09600
H1575       H  0.26044152  0.93580759  0.36400220     0.10700
H1576       H  0.23071443  0.92522901  0.24828080     0.16500
C1577       C  0.27536475  0.61548816  0.37478593    -0.01700
C1578       C  0.25716935  0.61542490  0.34892622     0.06900
C1579       C  0.24197677  0.63771106  0.34360820    -0.07700
C1580       C  0.24450166  0.65981922  0.36371823     0.04300
C1581       C  0.26288113  0.66009158  0.38946830    -0.14900
C1582       C  0.27825559  0.63777210  0.39452547    -0.08200
C1583       C  0.25196074  0.59156176  0.32911710     0.05300
C1584       C  0.22865105  0.57828631  0.33411502    -0.09400
C1585       C  0.22250280  0.55594839  0.31587664     0.00300
C1586       C  0.23985018  0.54646124  0.29190953     0.00100
C1587       C  0.26350063  0.55942348  0.28744431    -0.12900
C1588       C  0.26956075  0.58194441  0.30558086     0.00600
C1589       C  0.19863098  0.54270511  0.32316596     0.39900
C1590       C  0.29345914  0.59539867  0.29881822     0.36500
C1591       C  0.29007170  0.59234769  0.38273034     0.36300
C1592       C  0.22647237  0.68096296  0.35921328     0.37000
N1593       N  0.17946015  0.53231258  0.32955857    -0.43800
N1594       N  0.31258189  0.60623172  0.29334421    -0.44200
N1595       N  0.21182759  0.69776497  0.35576184    -0.41600
N1596       N  0.30163197  0.57365621  0.38906028    -0.43000
H1597       H  0.29209981  0.63749134  0.41456111     0.13100
H1598       H  0.22746283  0.63747010  0.32433028     0.09600
H1599       H  0.21521906  0.58540330  0.35250414     0.10700
H1600       H  0.27694614  0.55243030  0.26903054     0.16500
O1601       O  0.76344972  0.20411950  0.40372562    -0.86200
O1602       O  0.76273099  0.20566128  0.59184965    -0.86400
O1603       O  0.80860477  0.17801845  0.49841349    -0.88000
O1604       O  0.72516437  0.17339425  0.49973194    -0.86800
O1605       O  0.69254710  0.20332958  0.49855143    -0.86400
O1606       O  0.83825309  0.21090901  0.49568224    -0.87700
O1607       O  0.76581483  0.17491458  0.55093229    -0.86200
O1608       O  0.76644795  0.17347159  0.44540997    -0.85800
Zr1609     Zr  0.76570115  0.19682066  0.49740919     2.84300
O1610       O  0.73859776  0.22158291  0.53091493    -1.07800
O1611       O  0.78999012  0.22363606  0.46222802    -1.08500
C1612       C  0.76477723  0.18018507  0.41466178     1.06900
C1613       C  0.76401352  0.18173210  0.58153546     1.06900
C1614       C  0.83194896  0.18656682  0.49734709     1.09800
C1615       C  0.70117847  0.17971138  0.49971476     1.07600
H1616       H  0.80152451  0.21368848  0.54429858     0.33200
O1617       O  0.79026919  0.22420137  0.53070802    -1.28700
H1618       H  0.72792918  0.20950048  0.44999610     0.32900
O1619       O  0.73838214  0.22116755  0.46305034    -1.30400
O1620       O  0.76037162  0.29222134  0.59113371    -0.86200
O1621       O  0.75984076  0.29207242  0.40098471    -0.87700
O1622       O  0.83645916  0.25157632  0.54835852    -0.86300
O1623       O  0.69029175  0.24529450  0.54991740    -0.86300
O1624       O  0.68975006  0.24443687  0.44379646    -0.86000
O1625       O  0.83592638  0.25209163  0.44183174    -0.85800
O1626       O  0.80198141  0.32432136  0.49419442    -0.86200
O1627       O  0.71883626  0.32125244  0.49588224    -0.88100
O1628       O  0.83435465  0.29405835  0.49484258    -0.86700
O1629       O  0.68912034  0.28814704  0.49576769    -0.85900
O1630       O  0.80644542  0.24990831  0.59006949    -0.86300
O1631       O  0.80512056  0.24875530  0.40124842    -0.86000
O1632       O  0.71978472  0.24703986  0.40212809    -0.85700
O1633       O  0.72025256  0.24703468  0.59133533    -0.86100
O1634       O  0.76043676  0.32285654  0.54923590    -0.86400
O1635       O  0.75753191  0.32266186  0.44230348    -0.87700
Zr1636     Zr  0.76313795  0.24904556  0.56479261     2.83100
Zr1637     Zr  0.76266916  0.24846428  0.42801276     2.83500
Zr1638     Zr  0.81437937  0.25139861  0.49550126     2.84100
Zr1639     Zr  0.71184957  0.24651481  0.49668015     2.83400
Zr1640     Zr  0.76105399  0.30105564  0.49578765     2.84200
O1641       O  0.73623951  0.27370260  0.46231856    -1.08300
O1642       O  0.78803854  0.27640266  0.53006142    -1.07800
C1643       C  0.76004940  0.31608701  0.58011093     1.06900
C1644       C  0.75765737  0.31591246  0.41159553     1.09500
C1645       C  0.82996268  0.25065868  0.57916846     1.07100
C1646       C  0.69668505  0.24584548  0.58077356     1.07400
C1647       C  0.69637514  0.24516184  0.41302588     1.07000
C1648       C  0.82874059  0.25040373  0.41131033     1.06600
C1649       C  0.82594184  0.31771042  0.49403065     1.07000
C1650       C  0.69550724  0.31256470  0.49593322     1.06500
H1651       H  0.79775135  0.28773520  0.44736695     0.33200
O1652       O  0.78758943  0.27632706  0.46127796    -1.29400
H1653       H  0.72498469  0.28455598  0.54358096     0.33200
O1654       O  0.73630229  0.27403767  0.53022006    -1.30700
N1655       N  0.97362369  0.00336164  0.51569035    -0.36300
N1656       N  0.51611469  0.04000938  0.51912186    -0.56900
N1657       N  0.55209985  0.99685118  0.51502179    -0.36300
N1658       N  0.51061708  0.45943336  0.49899574    -0.56900
C1659       C  0.96086754  0.02619003  0.51171853     0.27300
C1660       C  0.95780402  0.48201616  0.49697006     0.27300
C1661       C  0.56815157  0.01720347  0.50946637     0.27300
C1662       C  0.56499713  0.47515877  0.49161148     0.27300
C1663       C  0.99696177  0.05700145  0.52338085     0.35900
C1664       C  0.53816774  0.05354417  0.52306159     0.35900
C1665       C  0.98882854  0.44543999  0.50396065     0.35900
C1666       C  0.53048791  0.44275992  0.50299799     0.35900
C1667       C  0.93599470  0.02116587  0.50096416    -0.21600
C1668       C  0.93408524  0.49182684  0.48729075    -0.21600
C1669       C  0.59155717  0.00811456  0.49775464    -0.21600
C1670       C  0.58886336  0.48183809  0.47868248    -0.21600
C1671       C  0.00681855  0.08154676  0.53043947    -0.22600
C1672       C  0.53285931  0.07937751  0.53064413    -0.22600
C1673       C  0.99491359  0.41961255  0.51096768    -0.22600
C1674       C  0.52147636  0.41787138  0.51033532    -0.22600
C1675       C  0.97074197  0.05144577  0.51812455    -0.18000
C1676       C  0.96368730  0.45522416  0.49993535    -0.18000
C1677       C  0.55648949  0.44936441  0.49745231    -0.18000
C1678       C  0.56287278  0.04361963  0.51642197    -0.18000
H1679       H  0.92091222  0.03518542  0.49587542     0.14900
H1680       H  0.91727214  0.48087566  0.47971168     0.14900
H1681       H  0.60850907  0.01944782  0.49152667     0.14900
H1682       H  0.60377525  0.46874163  0.47021575     0.14900
H1683       H  0.99620679  0.09939766  0.53468194     0.13200
H1684       H  0.54646913  0.09515481  0.53423671     0.13200
H1685       H  0.98173496  0.40359427  0.51565467     0.13200
H1686       H  0.53269837  0.40031888  0.51423375     0.13200
H1687       H  0.99143325  0.00094568  0.52683605     0.26500
H1688       H  0.53467869  0.99755195  0.52750541     0.26500
O1689       O  0.98753625  0.45172158  0.90885311    -0.86200
O1690       O  0.98263049  0.45599719  0.09752324    -0.86400
O1691       O  0.52386592  0.42339130  0.00676979    -0.88000
O1692       O  0.94126177  0.42366451  0.00277706    -0.86800
O1693       O  0.91022021  0.45545661  0.00222008    -0.86400
O1694       O  0.55505051  0.45499533  0.00546279    -0.87700
O1695       O  0.98158589  0.42454092  0.05721766    -0.86200
O1696       O  0.98510030  0.42179012  0.95140499    -0.85800
Zr1697     Zr  0.98267002  0.44544951  0.00304919     2.84300
O1698       O  0.95620011  0.47195410  0.03521021    -1.07800
O1699       O  0.50968130  0.47053256  0.96886172    -1.08500
C1700       C  0.98714772  0.42795956  0.92051326     1.06900
C1701       C  0.98224113  0.43192866  0.08766812     1.06900
C1702       C  0.54750401  0.43097294  0.00699035     1.09800
C1703       C  0.91770927  0.43144026  0.00320982     1.07600
H1704       H  0.51868690  0.46134549  0.05099013     0.33200
O1705       O  0.50819469  0.47205278  0.03667066    -1.28700
H1706       H  0.94749646  0.45931412  0.95305545     0.32900
O1707       O  0.95798260  0.47064752  0.96650714    -1.30400
O1708       O  0.98522994  0.04191311  0.09272880    -0.86200
O1709       O  0.98649118  0.04039670  0.90446028    -0.87700
O1710       O  0.55510072  0.49832819  0.05644349    -0.86300
O1711       O  0.90956821  0.49990669  0.05147161    -0.86300
O1712       O  0.91198889  0.49649124  0.94388139    -0.86000
O1713       O  0.55768945  0.49526664  0.94965149    -0.85800
O1714       O  0.52379064  0.07152090  0.00150297    -0.86200
O1715       O  0.94084973  0.07053292  0.99717643    -0.85700
O1716       O  0.55504198  0.04009293  0.00388393    -0.86700
O1717       O  0.90975205  0.03888537  0.99468033    -0.85900
O1718       O  0.52377039  0.49930398  0.09668695    -0.86300
O1719       O  0.52855728  0.99612062  0.90672357    -0.86000
O1720       O  0.94355102  0.99617103  0.90232707    -0.85700
O1721       O  0.93863130  0.50156116  0.09393759    -0.86100
O1722       O  0.98479786  0.07193052  0.05040218    -0.86400
O1723       O  0.98414333  0.07139268  0.94520266    -0.87700
Zr1724     Zr  0.98179785  0.49878266  0.06904946     2.83100
Zr1725     Zr  0.98504279  0.49629823  0.93240345     2.83500
Zr1726     Zr  0.53463400  0.49749033  0.00235066     2.84100
Zr1727     Zr  0.93177106  0.49755249  0.99870592     2.83400
Zr1728     Zr  0.98288465  0.04934402  0.99810151     2.84200
O1729       O  0.95824088  0.02297609  0.96338745    -1.08300
O1730       O  0.50768051  0.02385566  0.03356569    -1.07800
C1731       C  0.98618218  0.06561490  0.08128824     1.06900
C1732       C  0.98546451  0.06443875  0.91469371     1.09500
C1733       C  0.54745466  0.49898871  0.08680414     1.07100
C1734       C  0.91532427  0.50182610  0.08239835     1.07400
C1735       C  0.91973118  0.99545765  0.91190720     1.07000
C1736       C  0.55190157  0.99620041  0.91810336     1.06600
C1737       C  0.54743225  0.06410404  0.00373364     1.07000
C1738       C  0.91714246  0.06293529  0.99560935     1.06500
H1739       H  0.52102484  0.03435200  0.95288474     0.33200
O1740       O  0.50978176  0.02338257  0.96598409    -1.29400
H1741       H  0.94537951  0.03551497  0.04454260     0.33200
O1742       O  0.95625075  0.02408492  0.03184349    -1.30700
N1743       N  0.69374867  0.24856542  0.00897899    -0.36300
N1744       N  0.73239478  0.20822808  0.00305680    -0.56900
N1745       N  0.77162191  0.24793477  0.00546797    -0.36300
N1746       N  0.73304898  0.28833488  0.00951185    -0.56900
C1747       C  0.67922882  0.22784422  0.00020807     0.27300
C1748       C  0.67971128  0.27023693  0.00274180     0.27300
C1749       C  0.78544223  0.22718851  0.99520241     0.27300
C1750       C  0.78568836  0.26953700  0.99878115     0.27300
C1751       C  0.71164175  0.19308741  0.00919355     0.35900
C1752       C  0.75318213  0.19276745  0.00705517     0.35900
C1753       C  0.71259916  0.30294335  0.01806060     0.35900
C1754       C  0.75409134  0.30252681  0.01699057     0.35900
C1755       C  0.65568067  0.23637905  0.98820004    -0.21600
C1756       C  0.65604004  0.26323506  0.98962254    -0.21600
C1757       C  0.80853167  0.23569193  0.98166126    -0.21600
C1758       C  0.80862664  0.26252246  0.98375746    -0.21600
C1759       C  0.71921513  0.16777705  0.01675805    -0.22600
C1760       C  0.74563354  0.16755541  0.01529297    -0.22600
C1761       C  0.72061781  0.32662510  0.03102349    -0.22600
C1762       C  0.74705354  0.32635593  0.03034566    -0.22600
C1763       C  0.68600474  0.20146690  0.00536093    -0.18000
C1764       C  0.68693927  0.29584841  0.01154655    -0.18000
C1765       C  0.77932961  0.29501797  0.00892523    -0.18000
C1766       C  0.77866239  0.20084039  0.00083175    -0.18000
H1767       H  0.63976023  0.22446886  0.97980523     0.14900
H1768       H  0.64041689  0.27609699  0.98263237     0.14900
H1769       H  0.82394018  0.22380127  0.97194585     0.14900
H1770       H  0.82412587  0.27534538  0.97600846     0.14900
H1771       H  0.70698161  0.15114522  0.02220339     0.13200
H1772       H  0.75783838  0.15071584  0.01932607     0.13200
H1773       H  0.70868525  0.34252628  0.03957914     0.13200
H1774       H  0.75962648  0.34202636  0.03820159     0.13200
H1775       H  0.71072124  0.24773935  0.02257491     0.26500
H1776       H  0.75535867  0.24717057  0.02044555     0.26500
C1777       C  0.53459853  0.24723903  0.27074509     0.86800
C1778       C  0.53251696  0.22371296  0.24747019    -0.53400
C1779       C  0.01110475  0.22346014  0.22768967     0.09700
C1780       C  0.99325498  0.24719650  0.23334766     0.20700
C1781       C  0.53182303  0.27146580  0.24851072    -0.54200
C1782       C  0.01034145  0.27160519  0.22911685     0.09800
C1783       C  0.00889966  0.24608389  0.29015405    -0.53700
C1784       C  0.98738870  0.24605404  0.27059170     0.10400
H1785       H  0.54642330  0.20789760  0.24766334     0.14900
H1786       H  0.97586735  0.24772972  0.21744088     0.00600
H1787       H  0.54535682  0.28768412  0.24882599     0.15200
H1788       H  0.00716141  0.24479162  0.31678321     0.15000
C1789       C  0.70996682  0.50229111  0.22535474     0.86800
C1790       C  0.71376280  0.47703211  0.24559397    -0.53400
C1791       C  0.73526803  0.47657071  0.26508432     0.09700
C1792       C  0.75169191  0.50173600  0.26192581     0.20700
C1793       C  0.71116891  0.02407544  0.24936472    -0.54200
C1794       C  0.73308142  0.02404918  0.26814625     0.09800
C1795       C  0.73537314  0.50510467  0.20560376    -0.53700
C1796       C  0.75698528  0.50482269  0.22477355     0.10400
H1797       H  0.70022778  0.46084185  0.24474721     0.14900
H1798       H  0.76955041  0.50164375  0.27698867     0.00600
H1799       H  0.69679590  0.03939586  0.25100194     0.15200
H1800       H  0.73703888  0.50721253  0.17907191     0.15000
C1801       C  0.53662384  0.24856649  0.72899864     0.86800
C1802       C  0.53327763  0.27099876  0.75400847    -0.53400
C1803       C  0.01051120  0.27101774  0.77051944     0.09700
C1804       C  0.99275891  0.24786132  0.76087648     0.20700
C1805       C  0.53229296  0.22383440  0.75016262    -0.54200
C1806       C  0.00940450  0.22318336  0.76633153     0.09800
C1807       C  0.01290073  0.25041511  0.70649711    -0.53700
C1808       C  0.98986424  0.25020756  0.72283913     0.10400
H1809       H  0.54752178  0.28587190  0.75892464     0.14900
H1810       H  0.97421584  0.24722526  0.77449277     0.00600
H1811       H  0.54620780  0.20807830  0.75201605     0.15200
H1812       H  0.01425485  0.25133046  0.67969862     0.15000
C1813       C  0.71168158  0.49754895  0.76785318     0.86800
C1814       C  0.71602062  0.02269570  0.74437061    -0.53400
C1815       C  0.73842580  0.02227166  0.72682226     0.09700
C1816       C  0.75494175  0.49787359  0.73404383     0.20700
C1817       C  0.71452102  0.47466049  0.74365570    -0.54200
C1818       C  0.73716555  0.47432978  0.72654103     0.09800
C1819       C  0.73627367  0.49644462  0.78922795    -0.53700
C1820       C  0.75907043  0.49661448  0.77188722     0.10400
H1821       H  0.70302072  0.03900554  0.74152409     0.14900
H1822       H  0.77280421  0.49842883  0.71910320     0.00600
H1823       H  0.70015996  0.45935743  0.74104782     0.15200
H1824       H  0.73548029  0.49549665  0.81604461     0.15000
C1825       C  0.59878274  0.02433820  0.14207942    -0.01700
C1826       C  0.61204141  0.50169877  0.15240532     0.06900
C1827       C  0.60160531  0.47747342  0.14329084    -0.07700
C1828       C  0.57984744  0.47617588  0.12285539     0.04300
C1829       C  0.56788353  0.49940673  0.11199505    -0.14900
C1830       C  0.57679761  0.02315683  0.12206853    -0.08200
C1831       C  0.63689793  0.50223630  0.17048444     0.05300
C1832       C  0.63712879  0.49938845  0.20488506    -0.09400
C1833       C  0.66036915  0.49932222  0.22255986     0.00300
C1834       C  0.68434932  0.50231429  0.20584464     0.00100
C1835       C  0.68286929  0.00396093  0.16998453    -0.12900
C1836       C  0.65949269  0.00381699  0.15264770     0.00600
C1837       C  0.65888113  0.49529852  0.25789053     0.39900
C1838       C  0.65987334  0.00577429  0.11695129     0.36500
C1839       C  0.60874288  0.04962520  0.15127413     0.36300
C1840       C  0.57095486  0.45091995  0.11186198     0.37000
N1841       N  0.65759197  0.49159778  0.28611115    -0.43800
N1842       N  0.65998733  0.00726675  0.08836597    -0.44200
N1843       N  0.56400024  0.43069345  0.10279349    -0.41600
N1844       N  0.61660679  0.06996081  0.15859464    -0.43000
H1845       H  0.56786289  0.04111044  0.11346810     0.13100
H1846       H  0.61112782  0.45959884  0.15101582     0.09600
H1847       H  0.61903842  0.49700147  0.21797059     0.10700
H1848       H  0.70010200  0.00586564  0.15542421     0.16500
C1849       C  0.87818547  0.50614226  0.16364660    -0.01700
C1850       C  0.85261531  0.50937648  0.15273536     0.06900
C1851       C  0.84742325  0.01170116  0.11696286    -0.07700
C1852       C  0.86733527  0.00979986  0.09381545     0.04300
C1853       C  0.89338280  0.50490733  0.10619943    -0.14900
C1854       C  0.89821768  0.50390691  0.14051288    -0.08200
C1855       C  0.83021070  0.50933614  0.17569462     0.05300
C1856       C  0.81389394  0.03069948  0.17562449    -0.09400
C1857       C  0.79054654  0.02999993  0.19300924     0.00300
C1858       C  0.78308051  0.50754546  0.21040947     0.00100
C1859       C  0.79932388  0.48573289  0.21016728    -0.12900
C1860       C  0.82275081  0.48644879  0.19297120     0.00600
C1861       C  0.77526119  0.05349463  0.19492860     0.39900
C1862       C  0.83824838  0.46308959  0.19198190     0.36500
C1863       C  0.88433205  0.50510177  0.19844929     0.36300
C1864       C  0.86026141  0.01255151  0.05937446     0.37000
N1865       N  0.76304232  0.07231024  0.19690153    -0.43800
N1866       N  0.85097437  0.44457010  0.19121376    -0.44200
N1867       N  0.85440854  0.01445329  0.03183284    -0.41600
N1868       N  0.88928957  0.50416346  0.22634169    -0.43000
H1869       H  0.91768186  0.50110364  0.14947169     0.13100
H1870       H  0.82787002  0.01489609  0.10843492     0.09600
H1871       H  0.81972478  0.04852736  0.16298598     0.10700
H1872       H  0.79319995  0.46778924  0.22230638     0.16500
C1873       C  0.50828525  0.38717065  0.15480579    -0.01700
C1874       C  0.99094994  0.36579640  0.15296491     0.06900
C1875       C  0.96965910  0.36743075  0.13183169    -0.07700
C1876       C  0.96587878  0.38938906  0.11156182     0.04300
C1877       C  0.98331214  0.41060201  0.11267524    -0.14900
C1878       C  0.50414318  0.40953759  0.13508240    -0.08200
C1879       C  0.99511105  0.34118950  0.17205750     0.05300
C1880       C  0.49070082  0.34095364  0.20634155    -0.09400
C1881       C  0.49450397  0.31811649  0.22509403     0.00300
C1882       C  0.00305992  0.29501556  0.20943456     0.00100
C1883       C  0.00682149  0.29505906  0.17511158    -0.12900
C1884       C  0.00286422  0.31790183  0.15635413     0.00600
C1885       C  0.48954553  0.31876299  0.26023330     0.39900
C1886       C  0.00746627  0.31721722  0.12114795     0.36500
C1887       C  0.53105520  0.38589968  0.17522531     0.36300
C1888       C  0.94405225  0.38951369  0.08951474     0.37000
N1889       N  0.48544950  0.31917009  0.28837120    -0.43800
N1890       N  0.01108200  0.31670595  0.09290795    -0.44200
N1891       N  0.92654532  0.38939608  0.07185564    -0.41600
N1892       N  0.54939268  0.38477612  0.19141586    -0.43000
H1893       H  0.51779187  0.42556909  0.13589705     0.13100
H1894       H  0.95627855  0.35116041  0.13059703     0.09600
H1895       H  0.48426292  0.35865517  0.21838707     0.10700
H1896       H  0.01349115  0.27742680  0.16311065     0.16500
C1897       C  0.98378202  0.13471135  0.11399313    -0.01700
C1898       C  0.99563150  0.13231942  0.14509854     0.06900
C1899       C  0.50390906  0.10780149  0.15591530    -0.07700
C1900       C  0.50098693  0.08562634  0.13592632     0.04300
C1901       C  0.98906624  0.08781325  0.10468770    -0.14900
C1902       C  0.98031841  0.11262772  0.09436456    -0.08200
C1903       C  0.99968419  0.15562110  0.16611011     0.05300
C1904       C  0.97866139  0.16648478  0.18273529    -0.09400
C1905       C  0.98149067  0.18904328  0.20194076     0.00300
C1906       C  0.00594503  0.20112713  0.20487722     0.00100
C1907       C  0.52678596  0.19026875  0.18747020    -0.12900
C1908       C  0.52371866  0.16786044  0.16814961     0.00600
C1909       C  0.95894624  0.19856311  0.21873672     0.39900
C1910       C  0.54544380  0.15801818  0.14980319     0.36500
C1911       C  0.97615443  0.15992225  0.10107323     0.36300
C1912       C  0.51208911  0.06132868  0.14733235     0.37000
N1913       N  0.94035353  0.20579066  0.23145835    -0.43800
N1914       N  0.56265581  0.15005085  0.13479226    -0.44200
N1915       N  0.52115904  0.04196616  0.15657509    -0.41600
N1916       N  0.97036513  0.18022209  0.09072579    -0.43000
H1917       H  0.97100536  0.11497977  0.07051974     0.13100
H1918       H  0.51336278  0.10604626  0.17974946     0.09600
H1919       H  0.95993704  0.15721015  0.18070260     0.10700
H1920       H  0.54561924  0.19935859  0.18885078     0.16500
C1921       C  0.61231094  0.40073780  0.02355076    -0.01700
C1922       C  0.60844766  0.37484138  0.01326788     0.06900
C1923       C  0.58425591  0.36687550  0.00196654    -0.07700
C1924       C  0.56389867  0.38455465  0.99993054     0.04300
C1925       C  0.56777596  0.41085579  0.00959785    -0.14900
C1926       C  0.59203630  0.41846344  0.02170803    -0.08200
C1927       C  0.62938782  0.35559828  0.01355498     0.05300
C1928       C  0.62846548  0.33519881  0.03679379    -0.09400
C1929       C  0.64703436  0.31554402  0.03658438     0.00300
C1930       C  0.66690082  0.31633514  0.01280832     0.00100
C1931       C  0.66776442  0.33679084  0.98952914    -0.12900
C1932       C  0.64914089  0.35640724  0.98970833     0.00600
C1933       C  0.64511906  0.29463393  0.06064527     0.39900
C1934       C  0.65026955  0.37677149  0.96479871     0.36500
C1935       C  0.63679533  0.40954426  0.03621912     0.36300
C1936       C  0.53978766  0.37513040  0.98672378     0.37000
N1937       N  0.64336831  0.27776076  0.07973995    -0.43800
N1938       N  0.65119258  0.39312287  0.94489259    -0.44200
N1939       N  0.52057775  0.36732207  0.97614229    -0.41600
N1940       N  0.65634304  0.41680264  0.04637679    -0.43000
H1941       H  0.59526798  0.43836691  0.02983955     0.13100
H1942       H  0.58145788  0.34682647  0.99410389     0.09600
H1943       H  0.61303510  0.33453657  0.05486750     0.10700
H1944       H  0.68288961  0.33722728  0.97103468     0.16500
C1945       C  0.88096044  0.36981861  0.98461876    -0.01700
C1946       C  0.85994388  0.37198214  0.00635998     0.06900
C1947       C  0.85821837  0.39326400  0.02773463    -0.07700
C1948       C  0.87696020  0.41281401  0.02722174     0.04300
C1949       C  0.89775223  0.41112051  0.00487532    -0.14900
C1950       C  0.89977471  0.38936115  0.98406447    -0.08200
C1951       C  0.83922916  0.35242426  0.00687740     0.05300
C1952       C  0.83926598  0.33320004  0.03169490    -0.09400
C1953       C  0.81982502  0.31433593  0.03291986     0.00300
C1954       C  0.79986688  0.31502007  0.00928188     0.00100
C1955       C  0.79978541  0.33442427  0.98463747    -0.12900
C1956       C  0.81942515  0.35302085  0.98314371     0.00600
C1957       C  0.82079887  0.29447038  0.05844452     0.39900
C1958       C  0.81908692  0.37236493  0.95695548     0.36500
C1959       C  0.88347753  0.34770956  0.96284822     0.36300
C1960       C  0.87517433  0.43346487  0.05121168     0.37000
N1961       N  0.82178772  0.27852696  0.07885956    -0.43800
N1962       N  0.81894541  0.38778524  0.93586935    -0.44200
N1963       N  0.87368553  0.44966329  0.07091910    -0.41600
N1964       N  0.88532637  0.32990209  0.94551546    -0.43000
H1965       H  0.91586191  0.38782929  0.96708292     0.13100
H1966       H  0.84217903  0.39455018  0.04483149     0.09600
H1967       H  0.85461635  0.33284727  0.04987843     0.10700
H1968       H  0.78454101  0.33474787  0.96631231     0.16500
C1969       C  0.88440708  0.12755155  0.01227773    -0.01700
C1970       C  0.85925373  0.12307495  0.00045098     0.06900
C1971       C  0.85350022  0.09910849  0.98545993    -0.07700
C1972       C  0.87210095  0.07955453  0.98255517     0.04300
C1973       C  0.89697375  0.08345252  0.99600975    -0.14900
C1974       C  0.90275995  0.10765162  0.01062116    -0.08200
C1975       C  0.83895262  0.14346134  0.00135191     0.05300
C1976       C  0.82705443  0.15069204  0.97147691    -0.09400
C1977       C  0.80716207  0.16899628  0.97087528     0.00300
C1978       C  0.79929711  0.18091082  0.00045549     0.00100
C1979       C  0.81100533  0.17373044  0.03041776    -0.12900
C1980       C  0.83045496  0.15483117  0.03119569     0.00600
C1981       C  0.79486225  0.17494422  0.93972985     0.39900
C1982       C  0.84064092  0.14677420  0.06290965     0.36500
C1983       C  0.89230019  0.15272676  0.02469667     0.36300
C1984       C  0.86529637  0.05644898  0.96410780     0.37000
N1985       N  0.78501470  0.17945114  0.91466605    -0.43800
N1986       N  0.84890655  0.14036497  0.08828274    -0.44200
N1987       N  0.85960973  0.03817719  0.94901545    -0.41600
N1988       N  0.89873440  0.17288859  0.03457696    -0.43000
H1989       H  0.92181353  0.11121026  0.02059269     0.13100
H1990       H  0.83440082  0.09582464  0.97545139     0.09600
H1991       H  0.83322789  0.14181271  0.94852081     0.10700
H1992       H  0.80459750  0.18262450  0.05326064     0.16500
C1993       C  0.58065167  0.12913388  0.98996006    -0.01700
C1994       C  0.60497945  0.12456149  0.00404994     0.06900
C1995       C  0.61021527  0.10052824  0.01923434    -0.07700
C1996       C  0.59164268  0.08076401  0.02028337     0.04300
C1997       C  0.56729680  0.08488739  0.00538852    -0.14900
C1998       C  0.56197501  0.10941688  0.99090624    -0.08200
C1999       C  0.62535432  0.14462403  0.00361311     0.05300
C2000       C  0.62801428  0.16101587  0.03103325    -0.09400
C2001       C  0.64787213  0.17946349  0.03221557     0.00300
C2002       C  0.66520279  0.18167030  0.00549166     0.00100
C2003       C  0.66259088  0.16517757  0.97816640    -0.12900
C2004       C  0.64287113  0.14660287  0.97711116     0.00600
C2005       C  0.65059437  0.19543397  0.06133428     0.39900
C2006       C  0.64115712  0.12958954  0.94886167     0.36500
C2007       C  0.57476514  0.15358781  0.97360438     0.36300
C2008       C  0.59798150  0.05702593  0.03798684     0.37000
N2009       N  0.65291619  0.20816889  0.08470140    -0.43800
N2010       N  0.63991827  0.11596286  0.92618508    -0.44200
N2011       N  0.60338363  0.03819169  0.05237950    -0.41600
N2012       N  0.57014223  0.17310539  0.96024819    -0.43000
H2013       H  0.54342826  0.11302407  0.97946943     0.13100
H2014       H  0.62892083  0.09727677  0.03043463     0.09600
H2015       H  0.61474545  0.15914014  0.05164020     0.10700
H2016       H  0.67601876  0.16685494  0.95771022     0.16500
C2017       C  0.87919066  0.01229968  0.83619246    -0.01700
C2018       C  0.85702021  0.99686889  0.84175473     0.06900
C2019       C  0.85657743  0.47962986  0.87010534    -0.07700
C2020       C  0.87731996  0.47829523  0.89209966     0.04300
C2021       C  0.89912182  0.99426574  0.88632652    -0.14900
C2022       C  0.90003892  0.01090779  0.85844853    -0.08200
C2023       C  0.83314913  0.99929648  0.82152171     0.05300
C2024       C  0.83072539  0.48598039  0.79330348    -0.09400
C2025       C  0.80721355  0.48455208  0.77610425     0.00300
C2026       C  0.78495502  0.49716389  0.78872756     0.00100
C2027       C  0.78805813  0.01169490  0.81675899    -0.12900
C2028       C  0.81160817  0.01287759  0.83359384     0.00600
C2029       C  0.80661439  0.46860871  0.74684035     0.39900
C2030       C  0.81332722  0.02841956  0.86319178     0.36500
C2031       C  0.88068407  0.03008133  0.80838040     0.36300
C2032       C  0.87611066  0.45924600  0.91857283     0.37000
N2033       N  0.80682797  0.45572282  0.72342073    -0.43800
N2034       N  0.81474960  0.04105404  0.88675790    -0.44200
N2035       N  0.87498722  0.44386005  0.93963843    -0.41600
N2036       N  0.88203015  0.04427713  0.78601909    -0.43000
H2037       H  0.91660845  0.02351111  0.85471222     0.13100
H2038       H  0.83995404  0.46712540  0.87406629     0.09600
H2039       H  0.84742010  0.47569445  0.78396268     0.10700
H2040       H  0.77192182  0.02260754  0.82647638     0.16500
C2041       C  0.64730154  0.01915892  0.80943296    -0.01700
C2042       C  0.64139316  0.99710593  0.82920405     0.06900
C2043       C  0.65788121  0.47262791  0.82740191    -0.07700
C2044       C  0.68033692  0.47356745  0.80798409     0.04300
C2045       C  0.68661948  0.49620797  0.78893207    -0.14900
C2046       C  0.66953505  0.01949797  0.78955288    -0.08200
C2047       C  0.61838421  0.99632817  0.85183487     0.05300
C2048       C  0.59336383  0.49775769  0.83926216    -0.09400
C2049       C  0.57157097  0.49854090  0.85997895     0.00300
C2050       C  0.57418686  0.99597597  0.89417736     0.00100
C2051       C  0.59909576  0.99097921  0.90661097    -0.12900
C2052       C  0.62089158  0.99130004  0.88608961     0.00600
C2053       C  0.54737251  0.50581526  0.84503278     0.39900
C2054       C  0.64577458  0.98720428  0.90115334     0.36500
C2055       C  0.63133366  0.04223961  0.81000688     0.36300
C2056       C  0.69652515  0.45071316  0.80839575     0.37000
N2057       N  0.52810536  0.51174978  0.83277445    -0.43800
N2058       N  0.66570601  0.98385563  0.91320541    -0.44200
N2059       N  0.70913712  0.43211888  0.80884667    -0.41600
N2060       N  0.61847414  0.06067813  0.81043623    -0.43000
H2061       H  0.67317399  0.03715665  0.77570608     0.13100
H2062       H  0.65347245  0.45501361  0.84140647     0.09600
H2063       H  0.59114046  0.50166093  0.81300856     0.10700
H2064       H  0.60179260  0.98698406  0.93275842     0.16500
C2065       C  0.50774872  0.10785151  0.84373148    -0.01700
C2066       C  0.99294148  0.13059470  0.84798866     0.06900
C2067       C  0.97433522  0.13062233  0.87310108    -0.07700
C2068       C  0.97106717  0.10903404  0.89423045     0.04300
C2069       C  0.98631111  0.08631725  0.89016719    -0.14900
C2070       C  0.50420148  0.08593526  0.86453557    -0.08200
C2071       C  0.99639547  0.15476549  0.82726705     0.05300
C2072       C  0.49102185  0.15390314  0.79314244    -0.09400
C2073       C  0.49389386  0.17639084  0.77323612     0.00300
C2074       C  0.00212903  0.20027554  0.78726445     0.00100
C2075       C  0.00629409  0.20136198  0.82147043    -0.12900
C2076       C  0.00353636  0.17894185  0.84146063     0.00600
C2077       C  0.48807320  0.17480140  0.73839084     0.39900
C2078       C  0.00940135  0.18096232  0.87625550     0.36500
C2079       C  0.52817807  0.10722653  0.81959480     0.36300
C2080       C  0.95170061  0.11083722  0.91975005     0.37000
N2081       N  0.48312059  0.17370518  0.71052122    -0.43800
N2082       N  0.01419333  0.18258328  0.90412488    -0.44200
N2083       N  0.93615593  0.11261755  0.94009938    -0.41600
N2084       N  0.54472153  0.10671048  0.80044891    -0.43000
H2085       H  0.51652043  0.06900842  0.86169580     0.13100
H2086       H  0.96247103  0.14782334  0.87648013     0.09600
H2087       H  0.48478974  0.13571809  0.78204199     0.10700
H2088       H  0.01261594  0.21958125  0.83241173     0.16500
C2089       C  0.97717863  0.36027273  0.88446275    -0.01700
C2090       C  0.99416259  0.36022219  0.85727038     0.06900
C2091       C  0.50830312  0.38291407  0.85016738    -0.07700
C2092       C  0.50623176  0.40531890  0.86998873     0.04300
C2093       C  0.98910402  0.40552056  0.89721101    -0.14900
C2094       C  0.97466786  0.38274695  0.90392724    -0.08200
C2095       C  0.99784148  0.33634797  0.83660334     0.05300
C2096       C  0.97788782  0.32774798  0.81586930    -0.09400
C2097       C  0.98110927  0.30602080  0.79507161     0.00300
C2098       C  0.00455689  0.29202125  0.79520922     0.00100
C2099       C  0.52414964  0.30024726  0.81709287    -0.12900
C2100       C  0.52107372  0.32227353  0.83723572     0.00600
C2101       C  0.96068415  0.29985238  0.77227464     0.39900
C2102       C  0.54215120  0.33035954  0.85812241     0.36500
C2103       C  0.96322148  0.33697422  0.89396058     0.36300
C2104       C  0.52323178  0.42703801  0.86330375     0.37000
N2105       N  0.94413965  0.29524966  0.75405820    -0.43800
N2106       N  0.55891314  0.33714106  0.87486915    -0.44200
N2107       N  0.53714425  0.44425822  0.85809815    -0.41600
N2108       N  0.95226923  0.31818205  0.90169680    -0.43000
H2109       H  0.96164451  0.38232320  0.92490433     0.13100
H2110       H  0.52157315  0.38292197  0.82945369     0.09600
H2111       H  0.95998464  0.33859151  0.81517518     0.10700
H2112       H  0.54229967  0.28983854  0.81772986     0.16500
C2113       C  0.89632493  0.23734160  0.61458832    -0.01700
C2114       C  0.89542663  0.24996682  0.64543693     0.06900
C2115       C  0.87246631  0.26217649  0.65520708    -0.07700
C2116       C  0.85068705  0.26225769  0.63446552     0.04300
C2117       C  0.85169500  0.24992782  0.60329330    -0.14900
C2118       C  0.87466972  0.23739841  0.59393787    -0.08200
C2119       C  0.91856207  0.25102056  0.66724882     0.05300
C2120       C  0.93758894  0.26986228  0.66086537    -0.09400
C2121       C  0.96046777  0.27040537  0.67930361     0.00300
C2122       C  0.96476837  0.25170148  0.70473517     0.00100
C2123       C  0.94530338  0.23336405  0.71176897    -0.12900
C2124       C  0.92245242  0.23277495  0.69309012     0.00600
C2125       C  0.97900381  0.29074707  0.67210785     0.39900
C2126       C  0.90358962  0.21272046  0.69994231     0.36500
C2127       C  0.91933573  0.22421831  0.60357225     0.36300
C2128       C  0.82800988  0.27621227  0.64490260     0.37000
N2129       N  0.99401172  0.30692507  0.66647186    -0.43800
N2130       N  0.88839624  0.19664338  0.70516579    -0.44200
N2131       N  0.80965476  0.28734130  0.65275586    -0.41600
N2132       N  0.93775268  0.21367924  0.59472729    -0.43000
H2133       H  0.87578614  0.22760896  0.57025367     0.13100
H2134       H  0.87171717  0.27203645  0.67884406     0.09600
H2135       H  0.93464875  0.28403073  0.64113758     0.10700
H2136       H  0.94830964  0.21890702  0.73111730     0.16500
C2137       C  0.60154331  0.26953890  0.68892777    -0.01700
C2138       C  0.60756555  0.24773245  0.66930747     0.06900
C2139       C  0.59056704  0.22639275  0.66936986    -0.07700
C2140       C  0.56769500  0.22668073  0.68772964     0.04300
C2141       C  0.56176305  0.24814364  0.70851697    -0.14900
C2142       C  0.57901956  0.26961230  0.70810834    -0.08200
C2143       C  0.63055048  0.24723614  0.64698200     0.05300
C2144       C  0.65538350  0.25118690  0.65983398    -0.09400
C2145       C  0.67725041  0.25095680  0.63925428     0.00300
C2146       C  0.67469016  0.24542896  0.60503551     0.00100
C2147       C  0.64969141  0.24060037  0.59275426    -0.12900
C2148       C  0.62787105  0.24249775  0.61285824     0.00600
C2149       C  0.70176424  0.25698690  0.65414381     0.39900
C2150       C  0.60278627  0.24105101  0.59748769     0.36500
C2151       C  0.61764508  0.29260246  0.68889159     0.36300
C2152       C  0.55027704  0.20492759  0.68350958     0.37000
N2153       N  0.72133206  0.26177534  0.66637626    -0.43800
N2154       N  0.58259364  0.24023110  0.58545741    -0.44200
N2155       N  0.03564959  0.18804803  0.67866092    -0.41600
N2156       N  0.63058335  0.31104578  0.68903069    -0.43000
H2157       H  0.57496156  0.28724627  0.72148955     0.13100
H2158       H  0.59489062  0.20956094  0.65417980     0.09600
H2159       H  0.65768354  0.25478459  0.68607693     0.10700
H2160       H  0.64686520  0.23602437  0.56686874     0.16500
C2161       C  0.77581106  0.11490640  0.61966249    -0.01700
C2162       C  0.75874401  0.11462667  0.64667041     0.06900
C2163       C  0.74454716  0.13718896  0.65378624    -0.07700
C2164       C  0.74651473  0.15964233  0.63370625     0.04300
C2165       C  0.76326916  0.15985706  0.60609073    -0.14900
C2166       C  0.77799218  0.13734085  0.59972330    -0.08200
C2167       C  0.75414083  0.09030725  0.66620885     0.05300
C2168       C  0.77105247  0.08355111  0.69184152    -0.09400
C2169       C  0.76678176  0.06112589  0.71135037     0.00300
C2170       C  0.74571604  0.04445140  0.70450108     0.00100
C2171       C  0.72912345  0.05105474  0.67827708    -0.12900
C2172       C  0.73300095  0.07389477  0.65946723     0.00600
C2173       C  0.78296340  0.05730963  0.73992083     0.39900
C2174       C  0.71462527  0.08070341  0.63405902     0.36500
C2175       C  0.79048543  0.09193880  0.61136394     0.36300
C2176       C  0.72934426  0.18106737  0.64032662     0.37000
N2177       N  0.79612207  0.05536748  0.76288049    -0.43800
N2178       N  0.69989907  0.08654192  0.61386217    -0.44200
N2179       N  0.71514895  0.19787170  0.64576989    -0.41600
N2180       N  0.80206464  0.07332928  0.60506586    -0.43000
H2181       H  0.79084634  0.13703441  0.57858003     0.13100
H2182       H  0.73113762  0.13687213  0.67435566     0.09600
H2183       H  0.78712945  0.09636415  0.69734241     0.10700
H2184       H  0.71258777  0.03874758  0.67320438     0.16500
C2185       C  0.73782825  0.35953104  0.65063498    -0.01700
C2186       C  0.75357775  0.38190589  0.64616161     0.06900
C2187       C  0.77264518  0.38142797  0.62161264    -0.07700
C2188       C  0.77552437  0.35981379  0.60084564     0.04300
C2189       C  0.75917857  0.33784379  0.60433564    -0.14900
C2190       C  0.74073525  0.33775138  0.62980391    -0.08200
C2191       C  0.75042775  0.40614021  0.66638403     0.05300
C2192       C  0.75429751  0.40499473  0.70074540    -0.09400
C2193       C  0.75133976  0.42732823  0.72039704     0.00300
C2194       C  0.74423968  0.45145609  0.70581267     0.00100
C2195       C  0.74112995  0.45286005  0.67141070    -0.12900
C2196       C  0.74422438  0.43053885  0.65168058     0.00600
C2197       C  0.75666282  0.42524946  0.75535782     0.39900
C2198       C  0.73994438  0.43294358  0.61650945     0.36500
C2199       C  0.71800350  0.35886222  0.67565917     0.36300
C2200       C  0.79587163  0.36046441  0.57653288     0.37000
N2201       N  0.76156686  0.42362104  0.78322029    -0.43800
N2202       N  0.73656397  0.43484191  0.58829753    -0.44200
N2203       N  0.81226958  0.36100439  0.55718133    -0.41600
N2204       N  0.70221364  0.35839316  0.69585365    -0.43000
H2205       H  0.72801711  0.32104772  0.63271410     0.13100
H2206       H  0.78528086  0.39817128  0.61851919     0.09600
H2207       H  0.75978188  0.38660631  0.71222704     0.10700
H2208       H  0.73553012  0.47125807  0.66005381     0.16500
C2209       C  0.92900902  0.10353719  0.47996437    -0.01700
C2210       C  0.91562073  0.11286856  0.50774519     0.06900
C2211       C  0.92123907  0.10295603  0.53932752    -0.07700
C2212       C  0.93964454  0.08332435  0.54340753     0.04300
C2213       C  0.95276899  0.07373191  0.51556071    -0.14900
C2214       C  0.94770267  0.08424782  0.48412186    -0.08200
C2215       C  0.89465464  0.13193731  0.50420947     0.05300
C2216       C  0.86970677  0.12261849  0.49895475    -0.09400
C2217       C  0.84900148  0.13984831  0.49615493     0.00300
C2218       C  0.85323018  0.16719332  0.49882279     0.00100
C2219       C  0.87858059  0.17630664  0.50381577    -0.12900
C2220       C  0.89917686  0.15892218  0.50655787     0.00600
C2221       C  0.82387841  0.12863913  0.49030604     0.39900
C2222       C  0.92474468  0.16907926  0.51220606     0.36500
C2223       C  0.92321174  0.11274222  0.44695536     0.36300
C2224       C  0.94430081  0.07282492  0.57608654     0.37000
N2225       N  0.80371249  0.11973932  0.48567620    -0.43800
N2226       N  0.94525617  0.17712192  0.51680085    -0.44200
N2227       N  0.94797947  0.06440579  0.60230546    -0.41600
N2228       N  0.91854006  0.11990417  0.42041048    -0.43000
H2229       H  0.95777092  0.07667790  0.46272984     0.13100
H2230       H  0.91077509  0.11013726  0.56062331     0.09600
H2231       H  0.86643504  0.10171827  0.49712671     0.10700
H2232       H  0.88242797  0.19705816  0.50609187     0.16500
C2233       C  0.61775876  0.08713799  0.54199111    -0.01700
C2234       C  0.62508122  0.09814320  0.51133209     0.06900
C2235       C  0.61218968  0.09100066  0.48235027    -0.07700
C2236       C  0.59165969  0.07344497  0.48367828     0.04300
C2237       C  0.58441817  0.06234467  0.51426415    -0.14900
C2238       C  0.59766835  0.06899442  0.54317536    -0.08200
C2239       C  0.64467742  0.11881320  0.50910977     0.05300
C2240       C  0.66896812  0.11281644  0.49639005    -0.09400
C2241       C  0.68758091  0.13234406  0.49233667     0.00300
C2242       C  0.68197932  0.15834599  0.50188874     0.00100
C2243       C  0.65731991  0.16415948  0.51416086    -0.12900
C2244       C  0.63867590  0.14469416  0.51754027     0.00600
C2245       C  0.71158408  0.12529413  0.47672576     0.39900
C2246       C  0.61330344  0.15173073  0.52902050     0.36500
C2247       C  0.62994275  0.09488340  0.57249924     0.36300
C2248       C  0.57783952  0.06748492  0.45366697     0.37000
N2249       N  0.73074684  0.11975502  0.46399488    -0.43800
N2250       N  0.59291487  0.15723438  0.53809506    -0.44200
N2251       N  0.56656458  0.06270056  0.42977181    -0.41600
N2252       N  0.63944721  0.10131238  0.59702757    -0.43000
H2253       H  0.59190112  0.06042356  0.56666121     0.13100
H2254       H  0.61765306  0.09983529  0.45889479     0.09600
H2255       H  0.67318587  0.09291205  0.48907553     0.10700
H2256       H  0.65251402  0.18396482  0.52125926     0.16500
C2257       C  0.61288030  0.40756112  0.52289613    -0.01700
C2258       C  0.61511660  0.39053780  0.49581905     0.06900
C2259       C  0.59766414  0.39242937  0.46942025    -0.07700
C2260       C  0.57817307  0.41129708  0.46970158     0.04300
C2261       C  0.57598618  0.42829182  0.49682458    -0.14900
C2262       C  0.59339312  0.42631465  0.52319169    -0.08200
C2263       C  0.63561096  0.37062031  0.49486365     0.05300
C2264       C  0.63088779  0.34612868  0.50918145    -0.09400
C2265       C  0.65009710  0.32704519  0.51014444     0.00300
C2266       C  0.67455471  0.33225464  0.49605972     0.00100
C2267       C  0.67922092  0.35709462  0.48206537    -0.12900
C2268       C  0.66002784  0.37623829  0.48152800     0.00600
C2269       C  0.64435245  0.30285588  0.52708880     0.39900
C2270       C  0.66588651  0.40168257  0.46780091     0.36500
C2271       C  0.63045051  0.40614609  0.55051136     0.36300
C2272       C  0.56100096  0.41358004  0.44174657     0.37000
N2273       N  0.63954652  0.28352903  0.54074053    -0.43800
N2274       N  0.67055968  0.42216795  0.45703788    -0.44200
N2275       N  0.54701105  0.41586766  0.41964606    -0.41600
N2276       N  0.64452798  0.40496860  0.57264745    -0.43000
H2277       H  0.59181439  0.43960590  0.54388286     0.13100
H2278       H  0.59945367  0.37935308  0.44854813     0.09600
H2279       H  0.61223468  0.34211082  0.52018397     0.10700
H2280       H  0.69787739  0.36160864  0.47141837     0.16500
C2281       C  0.88797426  0.35372641  0.51029815    -0.01700
C2282       C  0.88312073  0.37825101  0.49557420     0.06900
C2283       C  0.85993609  0.38256339  0.47878577    -0.07700
C2284       C  0.84112289  0.36303349  0.47744543     0.04300
C2285       C  0.84548065  0.33871662  0.49334746    -0.14900
C2286       C  0.86918217  0.33423915  0.50916756    -0.08200
C2287       C  0.90239531  0.39939254  0.49678783     0.05300
C2288       C  0.91428765  0.40740641  0.46729444    -0.09400
C2289       C  0.93401086  0.42596855  0.46775370     0.00300
C2290       C  0.94223428  0.43632355  0.49818774     0.00100
C2291       C  0.92969139  0.42909073  0.52752037    -0.12900
C2292       C  0.90957499  0.41097793  0.52697764     0.00600
C2293       C  0.94526608  0.43438118  0.43680158     0.39900
C2294       C  0.89614526  0.40504626  0.55741328     0.36500
C2295       C  0.91220980  0.34811485  0.52636750     0.36300
C2296       C  0.81802425  0.36821706  0.45865651     0.37000
N2297       N  0.95401495  0.44125237  0.41187988    -0.43800
N2298       N  0.88523822  0.40043929  0.58173608    -0.44200
N2299       N  0.79954818  0.37233917  0.44352925    -0.41600
N2300       N  0.93165139  0.34386340  0.53926797    -0.43000
H2301       H  0.87294643  0.31558345  0.52112417     0.13100
H2302       H  0.85654068  0.40128182  0.46679743     0.09600
H2303       H  0.90836150  0.39888129  0.44399982     0.10700
H2304       H  0.93561248  0.43769448  0.55076653     0.16500
C2305       C  0.65153714  0.26485976  0.34326843    -0.01700
C2306       C  0.63127559  0.24657766  0.34693595     0.06900
C2307       C  0.63379579  0.22646512  0.37050242    -0.07700
C2308       C  0.65524665  0.22514895  0.39141186     0.04300
C2309       C  0.67505236  0.24403379  0.38868151    -0.14900
C2310       C  0.67321994  0.26339553  0.36400039    -0.08200
C2311       C  0.60683412  0.24841129  0.32757375     0.05300
C2312       C  0.60724872  0.24555578  0.29312123    -0.09400
C2313       C  0.58435403  0.24545122  0.27460347     0.00300
C2314       C  0.56002044  0.24794525  0.29056080     0.00100
C2315       C  0.56007469  0.25214894  0.32502754    -0.12900
C2316       C  0.58293633  0.25200510  0.34341809     0.00600
C2317       C  0.58655184  0.24208456  0.23924354     0.39900
C2318       C  0.58128229  0.25554016  0.37877942     0.36500
C2319       C  0.65006682  0.28593046  0.31943309     0.36300
C2320       C  0.65646520  0.20405905  0.41530157     0.37000
N2321       N  0.58821461  0.23900585  0.21097920    -0.43800
N2322       N  0.57984165  0.25809019  0.40714308    -0.44200
N2323       N  0.65719172  0.18702526  0.43426376    -0.41600
N2324       N  0.64902794  0.30282235  0.30028782    -0.43000
H2325       H  0.68824628  0.27805931  0.36182612     0.13100
H2326       H  0.61861646  0.21199195  0.37300390     0.09600
H2327       H  0.62554026  0.24284831  0.28068935     0.10700
H2328       H  0.54247628  0.25590800  0.33824872     0.16500
C2329       C  0.88940076  0.26928057  0.36468741    -0.01700
C2330       C  0.89019513  0.25040178  0.33940077     0.06900
C2331       C  0.87071170  0.23137281  0.33801069    -0.07700
C2332       C  0.85059347  0.23102423  0.36120212     0.04300
C2333       C  0.84940338  0.25034597  0.38594549    -0.14900
C2334       C  0.86905439  0.26922011  0.38752155    -0.08200
C2335       C  0.91314510  0.24792251  0.31758837     0.05300
C2336       C  0.92943457  0.22643041  0.32250997    -0.09400
C2337       C  0.95302070  0.22474022  0.30596458     0.00300
C2338       C  0.96096480  0.24513486  0.28458263     0.00100
C2339       C  0.94376457  0.26550466  0.27744943    -0.12900
C2340       C  0.91997132  0.26708638  0.29377032     0.00600
C2341       C  0.96792743  0.20113263  0.30964862     0.39900
C2342       C  0.90310258  0.28861677  0.28586481     0.36500
C2343       C  0.91013933  0.28781425  0.36888084     0.36300
C2344       C  0.83288818  0.20922657  0.36114085     0.37000
N2345       N  0.97939154  0.18184628  0.31204576    -0.43800
N2346       N  0.88978075  0.30596609  0.27917317    -0.44200
N2347       N  0.81899485  0.19151532  0.36152788    -0.41600
N2348       N  0.92695063  0.30244968  0.37211669    -0.43000
H2349       H  0.86871582  0.28371467  0.40697798     0.13100
H2350       H  0.87181519  0.21613155  0.31954760     0.09600
H2351       H  0.92390953  0.21114931  0.33986641     0.10700
H2352       H  0.94923445  0.28060909  0.25986411     0.16500
C2353       C  0.73426947  0.37995704  0.37491215    -0.01700
C2354       C  0.75107209  0.38399145  0.34791588     0.06900
C2355       C  0.76937139  0.36456453  0.34073116    -0.07700
C2356       C  0.77124991  0.34164445  0.36011740     0.04300
C2357       C  0.75469389  0.33788781  0.38746587    -0.14900
C2358       C  0.73623225  0.35720221  0.39430339    -0.08200
C2359       C  0.74893367  0.40771667  0.32609553     0.05300
C2360       C  0.75307065  0.43280699  0.33917136    -0.09400
C2361       C  0.74943069  0.45546425  0.31972061     0.00300
C2362       C  0.74168777  0.45327908  0.28628216     0.00100
C2363       C  0.73816940  0.42808049  0.27315804    -0.12900
C2364       C  0.74156213  0.40555403  0.29267130     0.00600
C2365       C  0.75229675  0.48059008  0.33535265     0.39900
C2366       C  0.73607851  0.38034891  0.27842232     0.36500
C2367       C  0.71457437  0.39872272  0.38297741     0.36300
C2368       C  0.79108892  0.32295237  0.35241702     0.37000
N2369       N  0.75464126  0.50066411  0.34805380    -0.43800
N2370       N  0.73168842  0.35996306  0.26752446    -0.44200
N2371       N  0.80703395  0.30799583  0.34625221    -0.41600
N2372       N  0.69881761  0.41379001  0.38945533    -0.43000
H2373       H  0.72332807  0.35457025  0.41517080     0.13100
H2374       H  0.78237482  0.36743955  0.32003105     0.09600
H2375       H  0.75860395  0.43469894  0.36491504     0.10700
H2376       H  0.73228539  0.42593793  0.24758165     0.16500
C2377       C  0.77530626  0.11356958  0.37565848    -0.01700
C2378       C  0.75774103  0.11409442  0.34908354     0.06900
C2379       C  0.74307126  0.13669511  0.34355614    -0.07700
C2380       C  0.74552802  0.15856672  0.36408987     0.04300
C2381       C  0.76335155  0.15834163  0.39048963    -0.14900
C2382       C  0.77810764  0.13561324  0.39593091    -0.08200
C2383       C  0.75242363  0.09047164  0.32883409     0.05300
C2384       C  0.72938001  0.07682215  0.33425718    -0.09400
C2385       C  0.72301878  0.05482691  0.31545655     0.00300
C2386       C  0.73991602  0.04602479  0.29055100     0.00100
C2387       C  0.76335722  0.05928856  0.28573396    -0.12900
C2388       C  0.76957892  0.08152616  0.30435012     0.00600
C2389       C  0.69943533  0.04121082  0.32316485     0.39900
C2390       C  0.79314617  0.09539890  0.29708216     0.36500
C2391       C  0.78946846  0.09008469  0.38362796     0.36300
C2392       C  0.72782171  0.17996870  0.35945314     0.37000
N2393       N  0.68049491  0.03056536  0.33001194    -0.43800
N2394       N  0.81199189  0.10655258  0.29106896    -0.44200
N2395       N  0.71344818  0.19701976  0.35610158    -0.41600
N2396       N  0.80056753  0.07110203  0.38994432    -0.43000
H2397       H  0.79141988  0.13484085  0.41656765     0.13100
H2398       H  0.72895031  0.13687255  0.32379813     0.09600
H2399       H  0.71629226  0.08342025  0.35335578     0.10700
H2400       H  0.77650453  0.05274389  0.26671259     0.16500
O2401       O  0.76269736  0.70584194  0.40328673    -0.86200
O2402       O  0.76345727  0.70569729  0.59237463    -0.86400
O2403       O  0.80744298  0.67758520  0.49776313    -0.88000
O2404       O  0.72407799  0.67415241  0.49779931    -0.86800
O2405       O  0.69192655  0.70468227  0.49818995    -0.86400
O2406       O  0.83754454  0.71011192  0.49534975    -0.87700
O2407       O  0.76450927  0.67549589  0.55087198    -0.86200
O2408       O  0.76573791  0.67485376  0.44457676    -0.85800
Zr2409     Zr  0.76498815  0.69728273  0.49725547     2.84300
O2410       O  0.73845774  0.72211574  0.53128728    -1.07800
O2411       O  0.78956242  0.72419899  0.46247867    -1.08500
C2412       C  0.76401677  0.68185291  0.41392077     1.06900
C2413       C  0.76372701  0.68184413  0.58173727     1.06900
C2414       C  0.83088165  0.68583340  0.49655662     1.09800
C2415       C  0.70017881  0.68093222  0.49790331     1.07600
H2416       H  0.80131331  0.71328997  0.54422601     0.33200
O2417       O  0.79014202  0.72403675  0.53081163    -1.28700
H2418       H  0.72746569  0.71083705  0.44990344     0.32900
O2419       O  0.73805855  0.72222154  0.46316351    -1.30400
O2420       O  0.76141186  0.79197225  0.59228210    -0.86200
O2421       O  0.76059304  0.79365888  0.40247168    -0.87700
O2422       O  0.83709228  0.75085323  0.54863324    -0.86300
O2423       O  0.69020833  0.74550785  0.54985212    -0.86300
O2424       O  0.68983528  0.74603668  0.44437957    -0.86000
O2425       O  0.83563962  0.75169749  0.44205061    -0.85800
O2426       O  0.80301317  0.82432688  0.49429505    -0.86200
O2427       O  0.71911700  0.82160989  0.49626575    -0.88100
O2428       O  0.83514647  0.79379177  0.49449238    -0.86700
O2429       O  0.68915038  0.78883188  0.49701705    -0.85900
O2430       O  0.80711667  0.74959552  0.59044134    -0.86300
O2431       O  0.80468858  0.74984140  0.40152971    -0.86000
O2432       O  0.71969422  0.74893189  0.40259484    -0.85700
O2433       O  0.72026294  0.74646024  0.59120410    -0.86100
O2434       O  0.76160120  0.82293369  0.55076938    -0.86400
O2435       O  0.75868677  0.82397064  0.44414326    -0.87700
Zr2436     Zr  0.76353005  0.74902118  0.56537231     2.83100
Zr2437     Zr  0.76251949  0.74969964  0.42862555     2.83500
Zr2438     Zr  0.81457344  0.75123591  0.49598807     2.84100
Zr2439     Zr  0.71200879  0.74750170  0.49722595     2.83400
Zr2440     Zr  0.76166728  0.80160658  0.49705292     2.84200
O2441       O  0.73640983  0.77493992  0.46322578    -1.08300
O2442       O  0.78857037  0.77637470  0.53084559    -1.07800
C2443       C  0.76128924  0.81592189  0.58155791     1.06900
C2444       C  0.75882489  0.81744302  0.41337662     1.09500
C2445       C  0.83065826  0.75010675  0.57947522     1.07100
C2446       C  0.69665940  0.74541390  0.58062556     1.07400
C2447       C  0.69632246  0.74697993  0.41357977     1.07000
C2448       C  0.82833845  0.75078741  0.41150730     1.06600
C2449       C  0.82694852  0.81755456  0.49339105     1.07000
C2450       C  0.69565096  0.81316864  0.49638477     1.06500
H2451       H  0.79811101  0.78808797  0.44844406     0.33200
O2452       O  0.78786154  0.77673650  0.46231584    -1.29400
H2453       H  0.72551607  0.78504845  0.54475305     0.33200
O2454       O  0.73673879  0.77454118  0.53123890    -1.30700
N2455       N  0.97362231  0.50190880  0.50520969    -0.36300
N2456       N  0.51526443  0.53931594  0.50339878    -0.56900
N2457       N  0.55205224  0.49699389  0.49991949    -0.36300
N2458       N  0.50983554  0.96023446  0.51061043    -0.56900
C2459       C  0.96040064  0.52429981  0.50023759     0.27300
C2460       C  0.95740538  0.98399269  0.50659538     0.27300
C2461       C  0.56734583  0.51752299  0.49224757     0.27300
C2462       C  0.56494832  0.97496478  0.50660560     0.27300
C2463       C  0.99591436  0.55576424  0.51039135     0.35900
C2464       C  0.53716230  0.55315896  0.50716359     0.35900
C2465       C  0.98778547  0.94633276  0.51120254     0.35900
C2466       C  0.52930850  0.94289367  0.51349451     0.35900
C2467       C  0.93573278  0.51856278  0.48933676    -0.21600
C2468       C  0.93382495  0.99456217  0.49772135    -0.21600
C2469       C  0.59033636  0.50865086  0.47904426    -0.21600
C2470       C  0.58955582  0.98144590  0.49602964    -0.21600
C2471       C  0.00551080  0.58014518  0.51868487    -0.22600
C2472       C  0.53161022  0.57846554  0.51688697    -0.22600
C2473       C  0.99315092  0.91992448  0.51498042    -0.22600
C2474       C  0.51962044  0.91782584  0.51746145    -0.22600
C2475       C  0.96966069  0.54970646  0.50659638    -0.18000
C2476       C  0.96287640  0.95694596  0.50723056    -0.18000
C2477       C  0.55562658  0.94918216  0.50995500    -0.18000
C2478       C  0.56188077  0.54386995  0.49922456    -0.18000
H2479       H  0.92046753  0.53220615  0.48353184     0.14900
H2480       H  0.91678221  0.98420358  0.48968030     0.14900
H2481       H  0.60664659  0.52026462  0.47101630     0.14900
H2482       H  0.60464608  0.96834019  0.48814990     0.14900
H2483       H  0.99467265  0.59743690  0.52507569     0.13200
H2484       H  0.54505763  0.59427572  0.52114936     0.13200
H2485       H  0.97953135  0.90391999  0.51650015     0.13200
H2486       H  0.53039905  0.89981997  0.51970904     0.13200
H2487       H  0.99132401  0.50018443  0.51694936     0.26500
H2488       H  0.53530587  0.49766093  0.51390791     0.26500
O2489       O  0.98808483  0.95207958  0.90725031    -0.86200
O2490       O  0.98189959  0.95575117  0.09607779    -0.86400
O2491       O  0.52337745  0.92314525  0.00556940    -0.88000
O2492       O  0.94137591  0.92342015  0.00141179    -0.86800
O2493       O  0.91031636  0.95517786  0.00104841    -0.86400
O2494       O  0.55458436  0.95471980  0.00435750    -0.87700
O2495       O  0.98127947  0.92431227  0.05574529    -0.86200
O2496       O  0.98551095  0.92202011  0.94966098    -0.85800
Zr2497     Zr  0.98276207  0.94529137  0.00159785     2.84300
O2498       O  0.95606944  0.97156308  0.03370798    -1.07800
O2499       O  0.50950123  0.97064656  0.96780228    -1.08500
C2500       C  0.98769698  0.92828673  0.91880656     1.06900
C2501       C  0.98162695  0.93171378  0.08620602     1.06900
C2502       C  0.54701063  0.93068381  0.00580518     1.09800
C2503       C  0.91781463  0.93118321  0.00201639     1.07600
H2504       H  0.51819957  0.96101795  0.04998682     0.33200
O2505       O  0.50777817  0.97177478  0.03563765    -1.28700
H2506       H  0.94783865  0.95919404  0.95146534     0.32900
O2507       O  0.95822473  0.97055378  0.96500782    -1.30400
O2508       O  0.98529484  0.54251755  0.09386170    -0.86200
O2509       O  0.98629631  0.53989824  0.90531317    -0.87700
O2510       O  0.55453632  0.99807645  0.05596780    -0.86300
O2511       O  0.90928782  0.99974856  0.04979950    -0.86300
O2512       O  0.91211026  0.99564884  0.94238086    -0.86000
O2513       O  0.55765410  0.99650001  0.94925634    -0.85800
O2514       O  0.52421286  0.57154744  0.00162570    -0.86200
O2515       O  0.94104178  0.57103476  0.99827889    -0.85700
O2516       O  0.55544325  0.54005800  0.00343431    -0.86700
O2517       O  0.90987025  0.53943845  0.99655454    -0.85900
O2518       O  0.52299236  0.99902743  0.09592589    -0.86300
O2519       O  0.52841609  0.49487762  0.90732923    -0.86000
O2520       O  0.94329006  0.49639025  0.90364782    -0.85700
O2521       O  0.93822890  0.00144205  0.09240318    -0.86100
O2522       O  0.98462477  0.57250370  0.05145051    -0.86400
O2523       O  0.98376586  0.57116155  0.94577554    -0.87700
Zr2524     Zr  0.98140896  0.99842315  0.06772811     2.83100
Zr2525     Zr  0.98530152  0.99649130  0.93120356     2.83500
Zr2526     Zr  0.53433994  0.99741768  0.00172520     2.84100
Zr2527     Zr  0.93178240  0.99721114  0.99719898     2.83400
Zr2528     Zr  0.98297802  0.54959679  0.99913275     2.84200
O2529       O  0.95825478  0.52305811  0.96468357    -1.08300
O2530       O  0.50815967  0.52408350  0.03434996    -1.07800
C2531       C  0.98595580  0.56625133  0.08239529     1.06900
C2532       C  0.98512106  0.56395479  0.91533891     1.09500
C2533       C  0.54672413  0.99873036  0.08625492     1.07100
C2534       C  0.91496512  0.00173017  0.08075392     1.07400
C2535       C  0.91950845  0.49611164  0.91336098     1.07000
C2536       C  0.55180593  0.49456880  0.91853835     1.06600
C2537       C  0.54784925  0.56406123  0.00336604     1.07000
C2538       C  0.91729389  0.56350721  0.99714919     1.06500
H2539       H  0.52118841  0.53418771  0.95331937     0.33200
O2540       O  0.50996869  0.52336055  0.96664181    -1.29400
H2541       H  0.94567141  0.53581693  0.04589056     0.33200
O2542       O  0.95649966  0.52437096  0.03315193    -1.30700
N2543       N  0.69356436  0.74846170  0.00920079    -0.36300
N2544       N  0.73236350  0.70840604  0.00407143    -0.56900
N2545       N  0.77129920  0.74839584  0.00468943    -0.36300
N2546       N  0.73263011  0.78850362  0.00830865    -0.56900
C2547       C  0.67921993  0.72758401  0.00059684     0.27300
C2548       C  0.67951470  0.76997112  0.00226831     0.27300
C2549       C  0.78513901  0.72755890  0.99483373     0.27300
C2550       C  0.78514454  0.76995125  0.99707919     0.27300
C2551       C  0.71173891  0.69325365  0.01081873     0.35900
C2552       C  0.75327330  0.69321515  0.00854399     0.35900
C2553       C  0.71216869  0.80293006  0.01721803     0.35900
C2554       C  0.75363061  0.80288915  0.01534818     0.35900
C2555       C  0.65577812  0.73585356  0.98795354    -0.21600
C2556       C  0.65601936  0.76272528  0.98884023    -0.21600
C2557       C  0.80800462  0.73594628  0.98055560    -0.21600
C2558       C  0.80795318  0.76281754  0.98183411    -0.21600
C2559       C  0.71950492  0.66819602  0.01933710    -0.22600
C2560       C  0.74593726  0.66815831  0.01782625    -0.22600
C2561       C  0.72013124  0.82668107  0.03004354    -0.22600
C2562       C  0.74656934  0.82665962  0.02882561    -0.22600
C2563       C  0.68607771  0.70134277  0.00645516    -0.18000
C2564       C  0.68654918  0.79565512  0.01085490    -0.18000
C2565       C  0.77879258  0.79550791  0.00683169    -0.18000
C2566       C  0.77863034  0.70131623  0.00160496    -0.18000
H2567       H  0.64000168  0.72376923  0.97950774     0.14900
H2568       H  0.64043050  0.77544391  0.98131476     0.14900
H2569       H  0.82338920  0.72396175  0.97096153     0.14900
H2570       H  0.82329663  0.77559994  0.97347961     0.14900
H2571       H  0.70738660  0.65160449  0.02538823     0.13200
H2572       H  0.75828908  0.65151818  0.02242181     0.13200
H2573       H  0.70815140  0.84248138  0.03878458     0.13200
H2574       H  0.75911689  0.84243485  0.03641111     0.13200
H2575       H  0.71039653  0.74791372  0.02312580     0.26500
H2576       H  0.75526033  0.74779000  0.02007929     0.26500
C2577       C  0.53466505  0.74845226  0.27160138     0.86800
C2578       C  0.53226458  0.72477628  0.24859301    -0.53400
C2579       C  0.01081434  0.72486855  0.22873056     0.09700
C2580       C  0.99315915  0.74879622  0.23448085     0.20700
C2581       C  0.53220729  0.77255901  0.24915946    -0.54200
C2582       C  0.01039941  0.77310491  0.23027973     0.09800
C2583       C  0.00887266  0.74755246  0.29125738    -0.53700
C2584       C  0.98735480  0.74771590  0.27175393     0.10400
H2585       H  0.54597683  0.70879121  0.24900256     0.14900
H2586       H  0.97575381  0.74955292  0.21863537     0.00600
H2587       H  0.54596249  0.78858996  0.24928700     0.15200
H2588       H  0.00718329  0.74620320  0.31789360     0.15000
C2589       C  0.70941906  0.00162064  0.22424208     0.86800
C2590       C  0.71328519  0.97651161  0.24480298    -0.53400
C2591       C  0.73493483  0.97616509  0.26407215     0.09700
C2592       C  0.75139324  0.00124864  0.26032078     0.20700
C2593       C  0.71148940  0.52454274  0.25073096    -0.54200
C2594       C  0.73327375  0.52446296  0.26973687     0.09800
C2595       C  0.73469015  0.00418899  0.20417787    -0.53700
C2596       C  0.75641479  0.00399559  0.22308738     0.10400
H2597       H  0.69965812  0.96039135  0.24438779     0.14900
H2598       H  0.76940296  0.00126013  0.27506756     0.00600
H2599       H  0.69713603  0.53989452  0.25221856     0.15200
H2600       H  0.73620955  0.00608911  0.17761154     0.15000
C2601       C  0.53723789  0.74696383  0.72956914     0.86800
C2602       C  0.53418900  0.76984340  0.75400708    -0.53400
C2603       C  0.01158033  0.77029719  0.77068253     0.09700
C2604       C  0.99348602  0.74726871  0.76161629     0.20700
C2605       C  0.53260980  0.72266611  0.75141809    -0.54200
C2606       C  0.00974571  0.72242195  0.76763207     0.09800
C2607       C  0.01361754  0.74860814  0.70717565    -0.53700
C2608       C  0.99060097  0.74905196  0.72356705     0.10400
H2609       H  0.54869311  0.78452981  0.75860377     0.14900
H2610       H  0.97493294  0.74710773  0.77522448     0.00600
H2611       H  0.54628951  0.70673424  0.75369409     0.15200
H2612       H  0.01493908  0.74917026  0.68035967     0.15000
C2613       C  0.71173575  0.99873310  0.76728151     0.86800
C2614       C  0.71563390  0.52196548  0.74568581    -0.53400
C2615       C  0.73817104  0.52236538  0.72841480     0.09700
C2616       C  0.75473877  0.99756532  0.73303454     0.20700
C2617       C  0.71393654  0.97537262  0.74377542    -0.54200
C2618       C  0.73643214  0.97429383  0.72648657     0.09800
C2619       C  0.73647505  0.99752746  0.78842470    -0.53700
C2620       C  0.75916146  0.99691392  0.77083363     0.10400
H2621       H  0.70221150  0.53793398  0.74298244     0.14900
H2622       H  0.77244695  0.99749691  0.71781063     0.00600
H2623       H  0.69924929  0.96032918  0.74173564     0.15200
H2624       H  0.73585301  0.99708497  0.81526488     0.15000
C2625       C  0.59984084  0.52492124  0.14186306    -0.01700
C2626       C  0.61116510  0.00105173  0.15200592     0.06900
C2627       C  0.60079795  0.97689310  0.14252809    -0.07700
C2628       C  0.57897098  0.97573266  0.12222368     0.04300
C2629       C  0.56701452  0.99903269  0.11161034    -0.14900
C2630       C  0.57778002  0.52359374  0.12201879    -0.08200
C2631       C  0.63610356  0.00149020  0.16987574     0.05300
C2632       C  0.63647278  0.99887976  0.20429420    -0.09400
C2633       C  0.65978945  0.99879051  0.22179760     0.00300
C2634       C  0.68371055  0.00155540  0.20489860     0.00100
C2635       C  0.68365407  0.50501290  0.17097059    -0.12900
C2636       C  0.66035264  0.50486141  0.15346624     0.00600
C2637       C  0.65842229  0.99496156  0.25715571     0.39900
C2638       C  0.66087335  0.50705610  0.11779946     0.36500
C2639       C  0.61016526  0.55029008  0.14999952     0.36300
C2640       C  0.56990780  0.95053450  0.11124309     0.37000
N2641       N  0.65718673  0.99138926  0.28540231    -0.43800
N2642       N  0.66106840  0.50873453  0.08923103    -0.44200
N2643       N  0.56277458  0.93034587  0.10226594    -0.41600
N2644       N  0.61835182  0.57071200  0.15630731    -0.43000
H2645       H  0.56892495  0.54148792  0.11308433     0.13100
H2646       H  0.61037848  0.95897304  0.14995181     0.09600
H2647       H  0.61842632  0.99669414  0.21753259     0.10700
H2648       H  0.70095653  0.50713761  0.15658627     0.16500
C2649       C  0.87747554  0.00439430  0.16182483    -0.01700
C2650       C  0.85204982  0.00861622  0.15085434     0.06900
C2651       C  0.84771804  0.51118777  0.11877868    -0.07700
C2652       C  0.86754351  0.50902985  0.09554842     0.04300
C2653       C  0.89300164  0.00479738  0.10449420    -0.14900
C2654       C  0.89761206  0.00259921  0.13877761    -0.08200
C2655       C  0.82949646  0.00835895  0.17359498     0.05300
C2656       C  0.81444261  0.53156781  0.17728322    -0.09400
C2657       C  0.79113395  0.53090760  0.19475735     0.00300
C2658       C  0.78239923  0.00657393  0.20839771     0.00100
C2659       C  0.79839545  0.98459270  0.20757766    -0.12900
C2660       C  0.82174481  0.98526170  0.19021895     0.00600
C2661       C  0.77590608  0.55443798  0.19668668     0.39900
C2662       C  0.83676051  0.96161995  0.18825767     0.36500
C2663       C  0.88332305  0.00156550  0.19657533     0.36300
C2664       C  0.86021270  0.51066482  0.06108711     0.37000
N2665       N  0.76383204  0.57334555  0.19872241    -0.43800
N2666       N  0.84906664  0.94284457  0.18668583    -0.44200
N2667       N  0.85420921  0.51169331  0.03353137    -0.41600
N2668       N  0.88795717  0.99903269  0.22441534    -0.43000
H2669       H  0.91694733  0.99899793  0.14774618     0.13100
H2670       H  0.82804783  0.51366764  0.11031247     0.09600
H2671       H  0.82013962  0.54928269  0.16429237     0.10700
H2672       H  0.79210812  0.96655756  0.21935381     0.16500
C2673       C  0.50759757  0.88824115  0.15433007    -0.01700
C2674       C  0.99087942  0.86633504  0.15236630     0.06900
C2675       C  0.97003401  0.86708555  0.13039954    -0.07700
C2676       C  0.96596358  0.88879471  0.10980204     0.04300
C2677       C  0.98271369  0.91053485  0.11132355    -0.14900
C2678       C  0.50302886  0.91028990  0.13428352    -0.08200
C2679       C  0.99537150  0.84207799  0.17200350     0.05300
C2680       C  0.49191358  0.84227925  0.20604147    -0.09400
C2681       C  0.49598038  0.81976492  0.22528625     0.00300
C2682       C  0.00341077  0.79645605  0.21036918     0.00100
C2683       C  0.00668308  0.79590227  0.17599276    -0.12900
C2684       C  0.00290750  0.81851641  0.15677662     0.00600
C2685       C  0.49233009  0.82130560  0.26063616     0.39900
C2686       C  0.00789721  0.81738483  0.12168159     0.36500
C2687       C  0.52992036  0.88810531  0.17559373     0.36300
C2688       C  0.94444675  0.88825360  0.08725383     0.37000
N2689       N  0.48943137  0.82261692  0.28896564    -0.43800
N2690       N  0.01201116  0.81649206  0.09357379    -0.44200
N2691       N  0.92716164  0.88768107  0.06924712    -0.41600
N2692       N  0.54791024  0.88802295  0.19246795    -0.43000
H2693       H  0.51606317  0.92683441  0.13539058     0.13100
H2694       H  0.95719813  0.85038443  0.12889187     0.09600
H2695       H  0.48580948  0.86022434  0.21780247     0.10700
H2696       H  0.01299755  0.77800037  0.16431047     0.16500
C2697       C  0.98129871  0.63519159  0.11581092    -0.01700
C2698       C  0.99410062  0.63330448  0.14639637     0.06900
C2699       C  0.50361327  0.60882468  0.15671506    -0.07700
C2700       C  0.50118674  0.58664831  0.13657394     0.04300
C2701       C  0.98832072  0.58854184  0.10589447    -0.14900
C2702       C  0.97826620  0.61298420  0.09615862    -0.08200
C2703       C  0.99836332  0.65685058  0.16717361     0.05300
C2704       C  0.97743889  0.66843575  0.18328152    -0.09400
C2705       C  0.98064987  0.69096154  0.20255296     0.00300
C2706       C  0.00537358  0.70241117  0.20602140     0.00100
C2707       C  0.52620670  0.69056459  0.18937330    -0.12900
C2708       C  0.52284162  0.66810263  0.17018120     0.00600
C2709       C  0.95819021  0.70107708  0.21897015     0.39900
C2710       C  0.54467205  0.65740028  0.15284582     0.36500
C2711       C  0.97244699  0.66007304  0.10319185     0.36300
C2712       C  0.51341912  0.56276389  0.14740587     0.37000
N2713       N  0.93971639  0.70886248  0.23144500    -0.43800
N2714       N  0.56196261  0.64866954  0.13869535    -0.44200
N2715       N  0.52339709  0.54374783  0.15621993    -0.41600
N2716       N  0.96565841  0.68008704  0.09296583    -0.43000
H2717       H  0.96832625  0.61495529  0.07268196     0.13100
H2718       H  0.51360716  0.60729308  0.18020546     0.09600
H2719       H  0.95849797  0.65968697  0.18092280     0.10700
H2720       H  0.54526700  0.69909633  0.19115721     0.16500
C2721       C  0.61190194  0.90031986  0.02132895    -0.01700
C2722       C  0.60779375  0.87431671  0.01163386     0.06900
C2723       C  0.58339118  0.86630395  0.00115034    -0.07700
C2724       C  0.56307924  0.88405030  0.99926529     0.04300
C2725       C  0.56721496  0.91047186  0.00831447    -0.14900
C2726       C  0.59166974  0.91809478  0.01971976    -0.08200
C2727       C  0.62866005  0.85498832  0.01194019     0.05300
C2728       C  0.62755105  0.83450334  0.03506424    -0.09400
C2729       C  0.64625041  0.81498401  0.03518424     0.00300
C2730       C  0.66640252  0.81598734  0.01183337     0.00100
C2731       C  0.66742012  0.83646181  0.98862281    -0.12900
C2732       C  0.64870917  0.85596383  0.98849398     0.00600
C2733       C  0.64424016  0.79402609  0.05917615     0.39900
C2734       C  0.65017362  0.87640709  0.96372347     0.36500
C2735       C  0.63664382  0.90922439  0.03302663     0.36300
C2736       C  0.53872999  0.87452575  0.98689635     0.37000
N2737       N  0.64247858  0.77708587  0.07817478    -0.43800
N2738       N  0.65150121  0.89279702  0.94390667    -0.44200
N2739       N  0.51932917  0.86664284  0.97699118    -0.41600
N2740       N  0.65643686  0.91655001  0.04228494    -0.43000
H2741       H  0.59511597  0.93807080  0.02741241     0.13100
H2742       H  0.58038527  0.84616237  0.99379226     0.09600
H2743       H  0.61193520  0.83372340  0.05286619     0.10700
H2744       H  0.68277067  0.83702306  0.97043842     0.16500
C2745       C  0.88097069  0.86982800  0.98274753    -0.01700
C2746       C  0.85951756  0.87227950  0.00371225     0.06900
C2747       C  0.85758286  0.89361073  0.02499090    -0.07700
C2748       C  0.87654430  0.91293875  0.02511175     0.04300
C2749       C  0.89781694  0.91091528  0.00355271    -0.14900
C2750       C  0.90003793  0.88909529  0.98289873    -0.08200
C2751       C  0.83883121  0.85269845  0.00406767     0.05300
C2752       C  0.83842447  0.83404109  0.02954972    -0.09400
C2753       C  0.81893970  0.81526031  0.03095212     0.00300
C2754       C  0.79931289  0.81549981  0.00687181     0.00100
C2755       C  0.79967770  0.83429245  0.98147871    -0.12900
C2756       C  0.81944887  0.85275916  0.97974236     0.00600
C2757       C  0.81955009  0.79590819  0.05711431     0.39900
C2758       C  0.81969521  0.87137115  0.95271363     0.36500
C2759       C  0.88369278  0.84774857  0.96098418     0.36300
C2760       C  0.87430654  0.93380631  0.04875845     0.37000
N2761       N  0.82026548  0.78037576  0.07804775    -0.43800
N2762       N  0.82002917  0.88616758  0.93092480    -0.44200
N2763       N  0.87236138  0.95022087  0.06811745    -0.41600
N2764       N  0.88576306  0.83002386  0.94356076    -0.43000
H2765       H  0.91644076  0.88735516  0.96645847     0.13100
H2766       H  0.84120659  0.89510389  0.04152355     0.09600
H2767       H  0.85347786  0.83406693  0.04814426     0.10700
H2768       H  0.78472206  0.83420576  0.96276369     0.16500
C2769       C  0.88512523  0.62882759  0.01225343    -0.01700
C2770       C  0.85962165  0.62404088  0.00198127     0.06900
C2771       C  0.85338770  0.59963126  0.98854597    -0.07700
C2772       C  0.87186651  0.57996567  0.98558160     0.04300
C2773       C  0.89715096  0.58414708  0.99760353    -0.14900
C2774       C  0.90340164  0.60881536  0.01066964    -0.08200
C2775       C  0.83938991  0.64450932  0.00265440     0.05300
C2776       C  0.82677937  0.65076857  0.97291590    -0.09400
C2777       C  0.80670675  0.66885638  0.97219358     0.00300
C2778       C  0.79939290  0.68155738  0.00146238     0.00100
C2779       C  0.81186894  0.67543873  0.03127500    -0.12900
C2780       C  0.83150711  0.65674221  0.03222331     0.00600
C2781       C  0.79360921  0.67373440  0.94129349     0.39900
C2782       C  0.84245898  0.64972715  0.06389595     0.36500
C2783       C  0.89340797  0.65440532  0.02284872     0.36300
C2784       C  0.86445253  0.55648292  0.96833048     0.37000
N2785       N  0.78309006  0.67738461  0.91646548    -0.43800
N2786       N  0.85127437  0.64415175  0.08927058    -0.44200
N2787       N  0.85821232  0.53795765  0.95411257    -0.41600
N2788       N  0.90015568  0.67490113  0.03119673    -0.43000
H2789       H  0.92275667  0.61267071  0.01942470     0.13100
H2790       H  0.83399290  0.59610409  0.97966258     0.09600
H2791       H  0.83248671  0.64123043  0.95019055     0.10700
H2792       H  0.80590415  0.68498222  0.05389152     0.16500
C2793       C  0.58120435  0.62879342  0.98871356    -0.01700
C2794       C  0.60535662  0.62435365  0.00334398     0.06900
C2795       C  0.61047062  0.60047849  0.01897416    -0.07700
C2796       C  0.59189834  0.58075101  0.02004009     0.04300
C2797       C  0.56773459  0.58474603  0.00465588    -0.14900
C2798       C  0.56255607  0.60907061  0.98958066    -0.08200
C2799       C  0.62561456  0.64446890  0.00329763     0.05300
C2800       C  0.62776003  0.66091454  0.03071625    -0.09400
C2801       C  0.64754607  0.67938505  0.03239587     0.00300
C2802       C  0.66544663  0.68140286  0.00627366     0.00100
C2803       C  0.66331465  0.66486621  0.97891776    -0.12900
C2804       C  0.64353243  0.64640558  0.97726190     0.00600
C2805       C  0.64943262  0.69569643  0.06131144     0.39900
C2806       C  0.64202247  0.62959741  0.94879247     0.36500
C2807       C  0.57541535  0.65317749  0.97213579     0.36300
C2808       C  0.59798034  0.55723733  0.03836000     0.37000
N2809       N  0.65094551  0.70870187  0.08454519    -0.43800
N2810       N  0.64085136  0.61616519  0.92592381    -0.44200
N2811       N  0.60317784  0.53857598  0.05322787    -0.41600
N2812       N  0.57085227  0.67266043  0.95866426    -0.43000
H2813       H  0.54411842  0.61253241  0.97778154     0.13100
H2814       H  0.62903572  0.59736753  0.03062007     0.09600
H2815       H  0.61408900  0.65911475  0.05089679     0.10700
H2816       H  0.67706861  0.66652902  0.95882130     0.16500
C2817       C  0.87861009  0.51297075  0.83790799    -0.01700
C2818       C  0.85662457  0.49724792  0.84345158     0.06900
C2819       C  0.85673221  0.97932164  0.86848347    -0.07700
C2820       C  0.87743413  0.97779278  0.89053956     0.04300
C2821       C  0.89881830  0.49499710  0.88789677    -0.14900
C2822       C  0.89951591  0.51175130  0.86010930    -0.08200
C2823       C  0.83269904  0.49942683  0.82327422     0.05300
C2824       C  0.83081574  0.98537431  0.79195851    -0.09400
C2825       C  0.80727247  0.98426111  0.77478417     0.00300
C2826       C  0.78520263  0.99728682  0.78736624     0.00100
C2827       C  0.78740148  0.51107493  0.81855337    -0.12900
C2828       C  0.81077909  0.51213555  0.83578801     0.00600
C2829       C  0.80659230  0.96851812  0.74534796     0.39900
C2830       C  0.81178800  0.52623260  0.86658716     0.36500
C2831       C  0.87983766  0.53087538  0.81019094     0.36300
C2832       C  0.87594137  0.95880364  0.91707013     0.37000
N2833       N  0.80684037  0.95589460  0.72169656    -0.43800
N2834       N  0.81258403  0.53751429  0.89128133    -0.44200
N2835       N  0.87452242  0.94344504  0.93814334    -0.41600
N2836       N  0.88095541  0.54517011  0.78790784    -0.43000
H2837       H  0.91595541  0.52453324  0.85638916     0.13100
H2838       H  0.83995601  0.96703094  0.87245369     0.09600
H2839       H  0.84730367  0.97465691  0.78278945     0.10700
H2840       H  0.77100587  0.52144672  0.82850495     0.16500
C2841       C  0.64716891  0.51668990  0.81082931    -0.01700
C2842       C  0.64115578  0.49405029  0.82942286     0.06900
C2843       C  0.65806560  0.97559382  0.82802029    -0.07700
C2844       C  0.68045934  0.97594165  0.80850158     0.04300
C2845       C  0.68677104  0.99808561  0.78854477    -0.14900
C2846       C  0.66942782  0.51761226  0.79102124    -0.08200
C2847       C  0.61808974  0.49276637  0.85193559     0.05300
C2848       C  0.59359711  0.00092260  0.83910208    -0.09400
C2849       C  0.57173956  0.00114361  0.85973169     0.00300
C2850       C  0.57397262  0.49336473  0.89443829     0.00100
C2851       C  0.59876638  0.48757186  0.90672552    -0.12900
C2852       C  0.62054842  0.48754385  0.88613941     0.00600
C2853       C  0.54734189  0.00752543  0.84466806     0.39900
C2854       C  0.64543551  0.48338459  0.90115141     0.36500
C2855       C  0.63133359  0.53981028  0.81280273     0.36300
C2856       C  0.69645150  0.95292988  0.80955150     0.37000
N2857       N  0.52787401  0.01269402  0.83238051    -0.43800
N2858       N  0.66539946  0.48013779  0.91315721    -0.44200
N2859       N  0.70891359  0.93423027  0.81042703    -0.41600
N2860       N  0.61853831  0.55824228  0.81449144    -0.43000
H2861       H  0.67320396  0.53575336  0.77828253     0.13100
H2862       H  0.65361836  0.95832964  0.84269152     0.09600
H2863       H  0.59131078  0.00461222  0.81281292     0.10700
H2864       H  0.60141562  0.48348860  0.93285939     0.16500
C2865       C  0.50810144  0.60790156  0.84511176    -0.01700
C2866       C  0.99193202  0.62997105  0.84873537     0.06900
C2867       C  0.97221817  0.62904902  0.87241437    -0.07700
C2868       C  0.96902202  0.60723947  0.89319327     0.04300
C2869       C  0.98574114  0.58554611  0.89056315    -0.14900
C2870       C  0.50480337  0.58587697  0.86577068    -0.08200
C2871       C  0.99519400  0.65426049  0.82825832     0.05300
C2872       C  0.49135910  0.65329562  0.79389928    -0.09400
C2873       C  0.49434379  0.67576913  0.77405606     0.00300
C2874       C  0.00177043  0.69966502  0.78838436     0.00100
C2875       C  0.00433904  0.70103530  0.82283520    -0.12900
C2876       C  0.00107480  0.67865507  0.84279166     0.00600
C2877       C  0.48915580  0.67404168  0.73906057     0.39900
C2878       C  0.00512775  0.68094544  0.87798246     0.36500
C2879       C  0.52900495  0.60787402  0.82162503     0.36300
C2880       C  0.94795109  0.60740783  0.91648543     0.37000
N2881       N  0.48456197  0.67281593  0.71110016    -0.43800
N2882       N  0.00842809  0.68275328  0.90618829    -0.44200
N2883       N  0.93089473  0.60763973  0.93487426    -0.41600
N2884       N  0.54586774  0.60771441  0.80292877    -0.43000
H2885       H  0.51786006  0.56945873  0.86362423     0.13100
H2886       H  0.95931909  0.64557436  0.87478870     0.09600
H2887       H  0.48590326  0.63494059  0.78258051     0.10700
H2888       H  0.00984551  0.71942036  0.83404436     0.16500
C2889       C  0.97837853  0.86048991  0.88293394    -0.01700
C2890       C  0.99540037  0.86054050  0.85579056     0.06900
C2891       C  0.50910078  0.88367351  0.84848759    -0.07700
C2892       C  0.50680119  0.90600084  0.86841174     0.04300
C2893       C  0.98982020  0.90589672  0.89545847    -0.14900
C2894       C  0.97556389  0.88301023  0.90221481    -0.08200
C2895       C  0.99925598  0.83665131  0.83525954     0.05300
C2896       C  0.97927521  0.82781435  0.81477414    -0.09400
C2897       C  0.98245304  0.80587976  0.79436882     0.00300
C2898       C  0.00586739  0.79181900  0.79474703     0.00100
C2899       C  0.52535152  0.80069695  0.81597054    -0.12900
C2900       C  0.52231594  0.82305298  0.83556021     0.00600
C2901       C  0.96197928  0.79959582  0.77170787     0.39900
C2902       C  0.54346234  0.83158321  0.85605129     0.36500
C2903       C  0.96474567  0.83703024  0.89260580     0.36300
C2904       C  0.52386988  0.92775677  0.86216942     0.37000
N2905       N  0.94533702  0.79500844  0.75363619    -0.43800
N2906       N  0.56025763  0.83878688  0.87245809    -0.44200
N2907       N  0.53787209  0.94498245  0.85738796    -0.41600
N2908       N  0.95409012  0.81809087  0.90045648    -0.43000
H2909       H  0.96250338  0.88250863  0.92315197     0.13100
H2910       H  0.52248412  0.88381614  0.82789504     0.09600
H2911       H  0.96135001  0.83861995  0.81399532     0.10700
H2912       H  0.54351015  0.79031475  0.81680720     0.16500
C2913       C  0.89669015  0.73581455  0.61591252    -0.01700
C2914       C  0.89637746  0.75006693  0.64562979     0.06900
C2915       C  0.87398718  0.76381216  0.65421063    -0.07700
C2916       C  0.85216784  0.76367715  0.63351270     0.04300
C2917       C  0.85248234  0.74954043  0.60358427    -0.14900
C2918       C  0.87496641  0.73567021  0.59525670    -0.08200
C2919       C  0.91944740  0.75093761  0.66767182     0.05300
C2920       C  0.93870505  0.76962163  0.66158849    -0.09400
C2921       C  0.96149847  0.76984540  0.68026540     0.00300
C2922       C  0.96551887  0.75093682  0.70549940     0.00100
C2923       C  0.94579738  0.73285320  0.71236671    -0.12900
C2924       C  0.92300441  0.73262181  0.69353512     0.00600
C2925       C  0.98024130  0.79013339  0.67373851     0.39900
C2926       C  0.90377598  0.71291801  0.70032486     0.36500
C2927       C  0.91922418  0.72128738  0.60613651     0.36300
C2928       C  0.83025225  0.77939060  0.64248403     0.37000
N2929       N  0.99546200  0.80625734  0.66886736    -0.43800
N2930       N  0.88825034  0.69715505  0.70545835    -0.44200
N2931       N  0.81256200  0.79199483  0.64918907    -0.41600
N2932       N  0.93735222  0.70968853  0.59850647    -0.43000
H2933       H  0.87562304  0.72469041  0.57240404     0.13100
H2934       H  0.87370347  0.77498039  0.67690602     0.09600
H2935       H  0.93601773  0.78390902  0.64194416     0.10700
H2936       H  0.94855523  0.71832055  0.73169120     0.16500
C2937       C  0.60159124  0.76755392  0.68789236    -0.01700
C2938       C  0.60785893  0.74524754  0.66935448     0.06900
C2939       C  0.59131236  0.72361359  0.67067800    -0.07700
C2940       C  0.56860683  0.72401412  0.68937462     0.04300
C2941       C  0.56235744  0.74606420  0.70905471    -0.14900
C2942       C  0.57916567  0.76786250  0.70721786    -0.08200
C2943       C  0.63069064  0.74456894  0.64691283     0.05300
C2944       C  0.65549912  0.74842804  0.65979431    -0.09400
C2945       C  0.67730878  0.74856849  0.63919215     0.00300
C2946       C  0.67464708  0.74427892  0.60474457     0.00100
C2947       C  0.64960780  0.73981964  0.59223416    -0.12900
C2948       C  0.62789441  0.74023160  0.61270739     0.00600
C2949       C  0.70184327  0.75419179  0.65419941     0.39900
C2950       C  0.60279070  0.73716061  0.59776985     0.36500
C2951       C  0.61734537  0.79085528  0.68653989     0.36300
C2952       C  0.55185025  0.70159955  0.68669267     0.37000
N2953       N  0.72140997  0.75898447  0.66641113    -0.43800
N2954       N  0.58260946  0.73472288  0.58606234    -0.44200
N2955       N  0.03906181  0.68327860  0.68390448    -0.41600
N2956       N  0.62999933  0.80949376  0.68561866    -0.43000
H2957       H  0.57475930  0.78592145  0.71948649     0.13100
H2958       H  0.59588670  0.70642305  0.65626403     0.09600
H2959       H  0.65780419  0.75166315  0.68611856     0.10700
H2960       H  0.64668365  0.73641819  0.56605411     0.16500
C2961       C  0.76550775  0.61193919  0.61407909    -0.01700
C2962       C  0.75776881  0.61445776  0.64723148     0.06900
C2963       C  0.75337256  0.63950467  0.65992253    -0.07700
C2964       C  0.75577756  0.66191360  0.63972334     0.04300
C2965       C  0.76284597  0.65944109  0.60594030    -0.14900
C2966       C  0.76811501  0.63414070  0.59398132    -0.08200
C2967       C  0.75282047  0.59091004  0.66816171     0.05300
C2968       C  0.77010280  0.58412256  0.69340557    -0.09400
C2969       C  0.76617736  0.56156131  0.71284874     0.00300
C2970       C  0.74492034  0.54498724  0.70653355     0.00100
C2971       C  0.72762485  0.55199612  0.68127410    -0.12900
C2972       C  0.73121057  0.57486552  0.66252713     0.00600
C2973       C  0.78318937  0.55719733  0.74050186     0.39900
C2974       C  0.71184447  0.58234270  0.63870750     0.36500
C2975       C  0.77041946  0.58658323  0.59994753     0.36300
C2976       C  0.75024659  0.68684870  0.65445771     0.37000
N2977       N  0.79703102  0.55464925  0.76269961    -0.43800
N2978       N  0.69636111  0.58881205  0.61981088    -0.44200
N2979       N  0.74591155  0.70668684  0.66679242    -0.41600
N2980       N  0.77417716  0.56620233  0.58871101    -0.43000
H2981       H  0.77395916  0.63142584  0.56848662     0.13100
H2982       H  0.74737176  0.64148091  0.68548794     0.09600
H2983       H  0.78649116  0.59670070  0.69821805     0.10700
H2984       H  0.71081210  0.53991720  0.67684549     0.16500
C2985       C  0.73872879  0.85816401  0.65286557    -0.01700
C2986       C  0.75306578  0.88135757  0.64756809     0.06900
C2987       C  0.77172072  0.88181840  0.62250428    -0.07700
C2988       C  0.77544610  0.86026754  0.60188978     0.04300
C2989       C  0.76029987  0.83747308  0.60603501    -0.14900
C2990       C  0.74246854  0.83645042  0.63220027    -0.08200
C2991       C  0.74896613  0.90547804  0.66755903     0.05300
C2992       C  0.75384488  0.90487831  0.70171694    -0.09400
C2993       C  0.75084069  0.92737059  0.72101754     0.00300
C2994       C  0.74282217  0.95109128  0.70618241     0.00100
C2995       C  0.73818185  0.95182602  0.67206478    -0.12900
C2996       C  0.74115476  0.92932385  0.65273075     0.00600
C2997       C  0.75700053  0.92585707  0.75580240     0.39900
C2998       C  0.73508206  0.93094726  0.61793122     0.36500
C2999       C  0.71931789  0.85666625  0.67837472     0.36300
C3000       C  0.79535077  0.86191703  0.57701140     0.37000
N3001       N  0.76250447  0.92462399  0.78351072    -0.43800
N3002       N  0.73014513  0.93228250  0.59005431    -0.44200
N3003       N  0.81139133  0.86327376  0.55721105    -0.41600
N3004       N  0.70382486  0.85563833  0.69891902    -0.43000
H3005       H  0.73069967  0.81910368  0.63564863     0.13100
H3006       H  0.78332222  0.89925722  0.61886426     0.09600
H3007       H  0.76028035  0.88683924  0.71326440     0.10700
H3008       H  0.73159532  0.96986420  0.66065935     0.16500
C3009       C  0.92901218  0.60529889  0.47479565    -0.01700
C3010       C  0.91351695  0.61066599  0.50248847     0.06900
C3011       C  0.91702864  0.59661724  0.53201153    -0.07700
C3012       C  0.93569477  0.57706034  0.53412569     0.04300
C3013       C  0.95094367  0.57142094  0.50627132    -0.14900
C3014       C  0.94764289  0.58572975  0.47688438    -0.08200
C3015       C  0.89274919  0.63011524  0.50070438     0.05300
C3016       C  0.86782079  0.62147029  0.49373835    -0.09400
C3017       C  0.84737412  0.63909123  0.49186859     0.00300
C3018       C  0.85185385  0.66612773  0.49720313     0.00100
C3019       C  0.87714525  0.67457873  0.50399012    -0.12900
C3020       C  0.89747811  0.65682152  0.50586804     0.00600
C3021       C  0.82225863  0.62862839  0.48412594     0.39900
C3022       C  0.92291295  0.66632357  0.51380232     0.36500
C3023       C  0.92569197  0.61923132  0.44390773     0.36300
C3024       C  0.93889792  0.56305992  0.56497260     0.37000
N3025       N  0.80210320  0.62025339  0.47810288    -0.43800
N3026       N  0.94324635  0.67398565  0.52031115    -0.44200
N3027       N  0.94145822  0.55197634  0.58980831    -0.41600
N3028       N  0.92300593  0.63040439  0.41915790    -0.43000
H3029       H  0.95933519  0.58122302  0.45544400     0.13100
H3030       H  0.90502015  0.60082499  0.55326450     0.09600
H3031       H  0.86437575  0.60080599  0.48969556     0.10700
H3032       H  0.88111664  0.69507791  0.50841988     0.16500
C3033       C  0.61829874  0.58463050  0.52638571    -0.01700
C3034       C  0.62281435  0.60012064  0.49801987     0.06900
C3035       C  0.60791063  0.59649924  0.46955172    -0.07700
C3036       C  0.58804194  0.57808232  0.46937732     0.04300
C3037       C  0.58330124  0.56284498  0.49789941    -0.14900
C3038       C  0.59871519  0.56591341  0.52602911    -0.08200
C3039       C  0.64237757  0.62094215  0.49798343     0.05300
C3040       C  0.66574438  0.61663772  0.48181091    -0.09400
C3041       C  0.68470098  0.63602913  0.48098896     0.00300
C3042       C  0.68058772  0.65994506  0.49756907     0.00100
C3043       C  0.65678042  0.66431707  0.51315406    -0.12900
C3044       C  0.63761071  0.64512888  0.51311242     0.00600
C3045       C  0.70724541  0.63147378  0.46097540     0.39900
C3046       C  0.61293774  0.65077381  0.52788466     0.36500
C3047       C  0.63305525  0.58816234  0.55627311     0.36300
C3048       C  0.57256333  0.57532297  0.43996124     0.37000
N3049       N  0.72507621  0.62777287  0.44453117    -0.43800
N3050       N  0.59303047  0.65513623  0.53940912    -0.44200
N3051       N  0.56013423  0.57315649  0.41638548    -0.41600
N3052       N  0.64473500  0.59122516  0.58030339    -0.43000
H3053       H  0.59501786  0.55407203  0.54789437     0.13100
H3054       H  0.61145618  0.60849754  0.44778130     0.09600
H3055       H  0.66895825  0.59822552  0.46932045     0.10700
H3056       H  0.65306980  0.68278768  0.52526391     0.16500
C3057       C  0.60760679  0.90156800  0.53517660    -0.01700
C3058       C  0.61495569  0.89108945  0.50435318     0.06900
C3059       C  0.60187324  0.89894404  0.47558433    -0.07700
C3060       C  0.58204242  0.91735990  0.47710387     0.04300
C3061       C  0.57473783  0.92776338  0.50785602    -0.14900
C3062       C  0.58759556  0.91980133  0.53667091    -0.08200
C3063       C  0.63590492  0.87158589  0.50153650     0.05300
C3064       C  0.62972747  0.84616034  0.49158331    -0.09400
C3065       C  0.64878179  0.82699775  0.48861496     0.00300
C3066       C  0.67470711  0.83302868  0.49669472     0.00100
C3067       C  0.68081122  0.85885282  0.50569197    -0.12900
C3068       C  0.66181861  0.87811192  0.50761707     0.00600
C3069       C  0.64111460  0.80183801  0.47583612     0.39900
C3070       C  0.66960730  0.90463313  0.51447895     0.36500
C3071       C  0.62008626  0.89374205  0.56557658     0.36300
C3072       C  0.57027444  0.92647114  0.44680964     0.37000
N3073       N  0.63492159  0.78180270  0.46529716    -0.43800
N3074       N  0.67614391  0.92586309  0.51959482    -0.44200
N3075       N  0.56084988  0.93424094  0.42275149    -0.41600
N3076       N  0.63001380  0.88757769  0.59003559    -0.43000
H3077       H  0.58222669  0.92819046  0.56025205     0.13100
H3078       H  0.60755877  0.89106704  0.45184522     0.09600
H3079       H  0.60988623  0.84133573  0.48586759     0.10700
H3080       H  0.70054084  0.86417244  0.51126291     0.16500
C3081       C  0.88982487  0.85361413  0.50543563    -0.01700
C3082       C  0.88411899  0.87852956  0.49234477     0.06900
C3083       C  0.86035732  0.88283422  0.47695067    -0.07700
C3084       C  0.84168006  0.86306658  0.47608230     0.04300
C3085       C  0.84666084  0.83853904  0.49125430    -0.14900
C3086       C  0.87114207  0.83392857  0.50493731    -0.08200
C3087       C  0.90247481  0.90048472  0.49582201     0.05300
C3088       C  0.91512784  0.91034898  0.46772633    -0.09400
C3089       C  0.93430948  0.92943680  0.47087729     0.00300
C3090       C  0.94118294  0.93848175  0.50254342     0.00100
C3091       C  0.92764339  0.92960577  0.53039324    -0.12900
C3092       C  0.90816853  0.91092266  0.52721026     0.00600
C3093       C  0.94667105  0.93960493  0.44148757     0.39900
C3094       C  0.89409446  0.90284428  0.55636419     0.36500
C3095       C  0.91473035  0.84796586  0.51965831     0.36300
C3096       C  0.81793192  0.86834133  0.45874136     0.37000
N3097       N  0.95647126  0.94803074  0.41800357    -0.43800
N3098       N  0.88266495  0.89642305  0.57962404    -0.44200
N3099       N  0.79894151  0.87251774  0.44473814    -0.41600
N3100       N  0.93474109  0.84366735  0.53099191    -0.43000
H3101       H  0.87556322  0.81509032  0.51600446     0.13100
H3102       H  0.85624648  0.90183346  0.46612345     0.09600
H3103       H  0.91036838  0.90276098  0.44349388     0.10700
H3104       H  0.93251659  0.93711038  0.55463249     0.16500
C3105       C  0.65180693  0.76582008  0.34297146    -0.01700
C3106       C  0.63128107  0.74798015  0.34739303     0.06900
C3107       C  0.63338764  0.72851609  0.37179417    -0.07700
C3108       C  0.65469685  0.72743522  0.39285613     0.04300
C3109       C  0.67489900  0.74583128  0.38935879    -0.14900
C3110       C  0.67346154  0.76453740  0.36379500    -0.08200
C3111       C  0.60688000  0.74971350  0.32807859     0.05300
C3112       C  0.60721418  0.74609003  0.29377024    -0.09400
C3113       C  0.58431692  0.74603348  0.27533570     0.00300
C3114       C  0.56006658  0.74906761  0.29132214     0.00100
C3115       C  0.56021288  0.75402135  0.32562374    -0.12900
C3116       C  0.58310745  0.75403855  0.34390172     0.00600
C3117       C  0.58644920  0.74247536  0.23999998     0.39900
C3118       C  0.58169361  0.75855464  0.37910474     0.36500
C3119       C  0.65053598  0.78625113  0.31823230     0.36300
C3120       C  0.65518571  0.70705452  0.41770365     0.37000
N3121       N  0.58809410  0.73936361  0.21174064    -0.43800
N3122       N  0.58061403  0.76188312  0.40736010    -0.44200
N3123       N  0.65500512  0.69051053  0.43734974    -0.41600
N3124       N  0.64942704  0.80254955  0.29828461    -0.43000
H3125       H  0.68875490  0.77884122  0.36097170     0.13100
H3126       H  0.61793511  0.71440650  0.37487787     0.09600
H3127       H  0.62544649  0.74289404  0.28138590     0.10700
H3128       H  0.54269067  0.75835840  0.33873310     0.16500
C3129       C  0.89032040  0.76877220  0.36769179    -0.01700
C3130       C  0.89001968  0.75209156  0.34006180     0.06900
C3131       C  0.86908472  0.73505796  0.33567540    -0.07700
C3132       C  0.84861223  0.73448500  0.35837691     0.04300
C3133       C  0.84893941  0.75121247  0.38607643    -0.14900
C3134       C  0.86992835  0.76821609  0.39034065    -0.08200
C3135       C  0.91298792  0.74980169  0.31834849     0.05300
C3136       C  0.92873972  0.72778804  0.32225827    -0.09400
C3137       C  0.95253046  0.72624753  0.30616833     0.00300
C3138       C  0.96098231  0.74709467  0.28582641     0.00100
C3139       C  0.94444345  0.76826311  0.27998802    -0.12900
C3140       C  0.92062812  0.76987223  0.29623064     0.00600
C3141       C  0.96741152  0.70261326  0.30978823     0.39900
C3142       C  0.90469937  0.79251591  0.29039319     0.36500
C3143       C  0.91202894  0.78563856  0.37421860     0.36300
C3144       C  0.82845940  0.71532466  0.35400502     0.37000
N3145       N  0.97899910  0.68341357  0.31232340    -0.43800
N3146       N  0.89211844  0.81078536  0.28554455    -0.44200
N3147       N  0.81235974  0.69988766  0.35073650    -0.41600
N3148       N  0.92950546  0.79905313  0.37940688    -0.43000
H3149       H  0.87052384  0.78096598  0.41166433     0.13100
H3150       H  0.86913452  0.72165287  0.31500502     0.09600
H3151       H  0.92272443  0.71206853  0.33869419     0.10700
H3152       H  0.95052035  0.78398302  0.26363342     0.16500
C3153       C  0.73582976  0.88154952  0.37663835    -0.01700
C3154       C  0.75207181  0.88501674  0.34895937     0.06900
C3155       C  0.77037687  0.86556042  0.34191277    -0.07700
C3156       C  0.77265853  0.84304709  0.36197336     0.04300
C3157       C  0.75620965  0.83955544  0.38946605    -0.14900
C3158       C  0.73798052  0.85904654  0.39641245    -0.08200
C3159       C  0.74947298  0.90828221  0.32652145     0.05300
C3160       C  0.75430030  0.93353441  0.33859699    -0.09400
C3161       C  0.75027614  0.95585729  0.31870436     0.00300
C3162       C  0.74144202  0.95316148  0.28575663     0.00100
C3163       C  0.73717583  0.92775506  0.27362426    -0.12900
C3164       C  0.74096599  0.90555851  0.29362290     0.00600
C3165       C  0.75397034  0.98117640  0.33352937     0.39900
C3166       C  0.73485520  0.88013335  0.28043431     0.36500
C3167       C  0.71651149  0.90061165  0.38512707     0.36300
C3168       C  0.79302941  0.82471488  0.35517420     0.37000
N3169       N  0.75704122  0.00137456  0.34565527    -0.43800
N3170       N  0.72998010  0.85959907  0.27033487    -0.44200
N3171       N  0.80950244  0.81010716  0.35001815    -0.41600
N3172       N  0.70103710  0.91581167  0.39222196    -0.43000
H3173       H  0.72535420  0.85672286  0.41762227     0.13100
H3174       H  0.78313378  0.86815792  0.32090571     0.09600
H3175       H  0.76069753  0.93582468  0.36395397     0.10700
H3176       H  0.73050306  0.92517673  0.24844130     0.16500
C3177       C  0.77542132  0.61582010  0.37434535    -0.01700
C3178       C  0.75715732  0.61578537  0.34856821     0.06900
C3179       C  0.74180953  0.63800017  0.34352100    -0.07700
C3180       C  0.74426663  0.66001274  0.36381828     0.04300
C3181       C  0.76268306  0.66023292  0.38953013    -0.14900
C3182       C  0.77818469  0.63797662  0.39434249    -0.08200
C3183       C  0.75197279  0.59193985  0.32871806     0.05300
C3184       C  0.72888244  0.57837758  0.33414861    -0.09400
C3185       C  0.72283149  0.55592766  0.31608370     0.00300
C3186       C  0.74002878  0.54664389  0.29182317     0.00100
C3187       C  0.76350119  0.55984646  0.28698220    -0.12900
C3188       C  0.76947055  0.58247820  0.30494958     0.00600
C3189       C  0.69928180  0.54229631  0.32393595     0.39900
C3190       C  0.79316826  0.59617412  0.29780157     0.36500
C3191       C  0.79038082  0.59276658  0.38187942     0.36300
C3192       C  0.72616390  0.68111800  0.35952101     0.37000
N3193       N  0.68039999  0.53156801  0.33084841    -0.43800
N3194       N  0.81213357  0.60718490  0.29199115    -0.44200
N3195       N  0.71147637  0.69790056  0.35623537    -0.41600
N3196       N  0.80215192  0.57413556  0.38782490    -0.43000
H3197       H  0.79206523  0.63765710  0.41434070     0.13100
H3198       H  0.72724155  0.63777386  0.32431000     0.09600
H3199       H  0.71557045  0.58532934  0.35278270     0.10700
H3200       H  0.77686735  0.55294353  0.26842549     0.16500
loop_ 
_geom_bond_atom_site_label_1 
_geom_bond_atom_site_label_2 
_geom_bond_distance 
_geom_bond_site_symmetry_2 
_ccdc_geom_bond_type 
O1          Zr37   2.477       .  S
O1           C12   1.300       .  A
O2          Zr36   2.466       .  S
O2           C13   1.297       .  A
O3           Zr9   2.428       .  S
O3           C14   1.289       .  A
O4           Zr9   2.425       .  S
O4           C15   1.289       .  A
O5          Zr39   2.424       .  S
O5           C15   1.290       .  A
O6          Zr38   2.417       .  S
O6           C14   1.288       .  A
O7           Zr9   2.433       .  S
O7           C13   1.292       .  A
O8           Zr9   2.427       .  S
O8           C12   1.290       .  A
Zr9          O10   2.335       .  S
Zr9          O11   2.338       .  S
Zr9          O19   2.341       .  S
Zr9          O17   2.330       .  S
O10         Zr36   2.344       .  S
O10         Zr39   2.337       .  S
O11         Zr37   2.350       .  S
O11         Zr38   2.335       .  S
C12         C781   1.492       .  S
C13         C565   1.491       .  S
C14         C618   1.487       .  S
C15         C642   1.479       .  S
H16          O17   0.965       .  S
O17         Zr36   2.351       .  S
O17         Zr38   2.344       .  S
H18          O19   0.966       .  S
O19         Zr37   2.348       .  S
O19         Zr39   2.337       .  S
O20         Zr36   2.462       .  S
O20          C43   1.296       .  A
O21         Zr37   2.479       .  S
O21          C44   1.300       .  A
O22         Zr38   2.424       .  S
O22          C45   1.290       .  A
O23         Zr39   2.426       .  S
O23          C46   1.291       .  A
O24         Zr39   2.432       .  S
O24          C47   1.291       .  A
O25         Zr38   2.439       .  S
O25          C48   1.292       .  A
O26         Zr40   2.435       .  S
O26          C49   1.291       .  A
O27         Zr40   2.428       .  S
O27          C50   1.290       .  A
O28         Zr38   2.415       .  S
O28          C49   1.288       .  A
O29         Zr39   2.439       .  S
O29          C50   1.292       .  A
O30         Zr36   2.472       .  S
O30          C45   1.299       .  A
O31         Zr37   2.458       .  S
O31          C48   1.296       .  A
O32         Zr37   2.464       .  S
O32          C47   1.297       .  A
O33         Zr36   2.473       .  S
O33          C46   1.298       .  A
O34         Zr40   2.440       .  S
O34          C43   1.293       .  A
O35         Zr40   2.429       .  S
O35          C44   1.291       .  A
Zr36         O42   2.359       .  S
Zr36         O54   2.349       .  S
Zr37         O41   2.347       .  S
Zr37         O52   2.353       .  S
Zr38         O42   2.344       .  S
Zr38         O52   2.336       .  S
Zr39         O41   2.331       .  S
Zr39         O54   2.336       .  S
Zr40         O41   2.339       .  S
Zr40         O42   2.337       .  S
Zr40         O54   2.339       .  S
Zr40         O52   2.342       .  S
C43         C589   1.488       .  S
C44         C757   1.491       .  S
C45         C517   1.492       .  S
C46         C546   1.505       .  S
C47         C709   1.485       .  S
C48         C733   1.485       .  S
C49         C685   1.477       .  S
C50         C666   1.483       .  S
H51          O52   0.964       .  S
H53          O54   0.966       .  S
N55          H87   1.037       .  S
N55          C59   1.352       .  A
N55         C860   1.352   1_545  A
N56          C64   1.348       .  A
N56        C1663   1.348   1_455  A
N57          H88   1.037       .  S
N57          C61   1.350   1_565  A
N57         C862   1.350       .  A
N58          C66   1.350       .  A
N58        C1665   1.349   1_455  A
C59          C67   1.388       .  A
C59          C75   1.414       .  A
C60         N855   1.350       .  A
C60          C76   1.409       .  A
C60          C68   1.387       .  A
C61          C69   1.388       .  A
C61          C78   1.410       .  A
C62         N857   1.350       .  A
C62          C77   1.409       .  A
C62          C70   1.387       .  A
C63        N1656   1.348       .  A
C63          C75   1.408       .  A
C63          C71   1.386       .  A
C64          C78   1.408       .  A
C64          C72   1.387       .  A
C65        N1658   1.349       .  A
C65          C73   1.386       .  A
C65          C76   1.409       .  A
C66          C74   1.386       .  A
C66          C77   1.410       .  A
C67         C868   1.372   1_545  A
C67          H79   1.082       .  S
C68         C867   1.373       .  A
C68          H80   1.082       .  S
C69         C870   1.370   1_545  A
C69          H81   1.082       .  S
C70         C869   1.374       .  A
C70          H82   1.083       .  S
C71        C1672   1.371       .  A
C71          H83   1.082       .  S
C72        C1671   1.371       .  A
C72          H84   1.083       .  S
C73        C1674   1.373       .  A
C73          H85   1.082       .  S
C74        C1673   1.373   1_455  A
C74          H86   1.082       .  S
C75         C613   1.478       .  S
C76         C690   1.475       .  S
C77         C661   1.482       .  S
C78         C637   1.474       .  S
O89        Zr125   2.480       .  S
O89         C100   1.300       .  A
O90        Zr124   2.466       .  S
O90         C101   1.297       .  A
O91       Zr1697   2.418   1_455  S
O91         C102   1.288       .  A
O92         Zr97   2.420       .  S
O92         C103   1.288       .  A
O93        Zr127   2.426   1_554  S
O93         C103   1.289       .  A
O94        Zr126   2.424       .  S
O94         C102   1.290       .  A
O95         Zr97   2.430       .  S
O95         C101   1.290       .  A
O96         Zr97   2.424   1_556  S
O96         C100   1.290       .  A
Zr97       O1691   2.418       .  S
Zr97         O98   2.336       .  S
Zr97        O107   2.339   1_554  S
Zr97       O1699   2.339   1_554  S
Zr97       O1705   2.333       .  S
O98        Zr124   2.354       .  S
O98        Zr127   2.342   1_554  S
O99        Zr126   2.331   1_556  S
O99       Zr1697   2.340   1_456  S
O99       Zr1725   2.346   1_455  S
C100        C493   1.493       .  S
C101        C277   1.483       .  S
C102        C325   1.477       .  S
C103        C349   1.466       .  S
H104        O105   0.964       .  S
O105       Zr126   2.339       .  S
O105      Zr1697   2.334   1_455  S
O105      Zr1724   2.346   1_455  S
H106        O107   0.965       .  S
O107       Zr125   2.358       .  S
O107       Zr127   2.340       .  S
O108       Zr924   2.458   1_545  S
O108        C131   1.295       .  A
O109       Zr925   2.485   1_545  S
O109        C132   1.301       .  A
O110       Zr126   2.430       .  S
O110        C133   1.290       .  A
O111       Zr127   2.429   1_554  S
O111        C134   1.290       .  A
O112       Zr127   2.444       .  S
O112        C935   1.294       .  A
O113       Zr126   2.446   1_556  S
O113        C936   1.295       .  A
O114      Zr1728   2.423   1_454  S
O114        C137   1.290       .  A
O115       Zr128   2.442       .  S
O115        C138   1.293       .  A
O116       Zr926   2.436   1_545  S
O116        C137   1.291       .  A
O117       Zr927   2.424   1_545  S
O117        C138   1.289       .  A
O118      Zr1724   2.455   1_455  S
O118        C133   1.294       .  A
O119      Zr2525   2.467   1_455  S
O119        C136   1.298       .  A
O120       Zr925   2.464       .  S
O120        C135   1.297       .  A
O121       Zr124   2.463       .  S
O121        C134   1.298       .  A
O122       Zr128   2.418   1_554  S
O122        C131   1.289       .  A
O123       Zr128   2.411       .  S
O123        C132   1.288       .  A
Zr124       O908   2.463       .  S
Zr124      O1718   2.454       .  S
Zr124      O1705   2.346       .  S
Zr124      O2530   2.342       .  S
Zr124       O942   2.351       .  S
Zr125       O909   2.479       .  S
Zr125      O2519   2.467       .  S
Zr125       O920   2.463       .  S
Zr125      O1699   2.346       .  S
Zr125       O929   2.355       .  S
Zr125      O2540   2.350       .  S
Zr126       O916   2.430       .  S
Zr126       O930   2.334       .  S
Zr126       O940   2.335   1_554  S
Zr127       O917   2.429       .  S
Zr127       O929   2.335       .  S
Zr127       O942   2.343   1_556  S
Zr128      O1714   2.423   1_556  S
Zr128       O129   2.334       .  S
Zr128       O142   2.326   1_556  S
Zr128      O1730   2.329   1_556  S
Zr128      O1740   2.342       .  S
O129       Zr925   2.353   1_545  S
O129       Zr927   2.336   1_545  S
O130      Zr2524   2.339   1_445  S
O130       Zr926   2.332   1_545  S
O130      Zr1728   2.329   1_454  S
C131        C301   1.491       .  S
C132        C469   1.490       .  S
C133        C229   1.471       .  S
C134        C253   1.501       .  S
C135        O912   1.294       .  A
C135        C421   1.490       .  S
C136        O913   1.294       .  A
C136        C450   1.508       .  S
C137        C397   1.483       .  S
C138        C373   1.486       .  S
H139        O140   0.965       .  S
O140      Zr2525   2.349   1_445  S
O140       Zr926   2.337   1_546  S
O140      Zr1728   2.342   1_455  S
H141        O142   0.964       .  S
O142       Zr924   2.349   1_545  S
O142       Zr927   2.343   1_544  S
N143        H175   1.040       .  S
N143        C148   1.350       .  A
N143        C147   1.349   1_554  A
N144        C151   1.348       .  A
N144        C152   1.349       .  A
N145        H176   1.040       .  S
N145        C150   1.349   1_554  A
N145        C149   1.350   1_554  A
N146        C153   1.346       .  A
N146        C154   1.347       .  A
C147        C155   1.387       .  A
C147        C163   1.409   1_556  A
C148        C164   1.410       .  A
C148        C156   1.387   1_554  A
C149        C157   1.387       .  A
C149        C166   1.409       .  A
C150        C165   1.408   1_556  A
C150        C158   1.387       .  A
C151        C163   1.409       .  A
C151        C159   1.386       .  A
C152        C166   1.409   1_554  A
C152        C160   1.386       .  A
C153        C161   1.387       .  A
C153        C164   1.406       .  A
C154        C162   1.386       .  A
C154        C165   1.405       .  A
C155        C156   1.376       .  A
C155        H167   1.082       .  S
C156        H168   1.082       .  S
C157        C158   1.376       .  A
C157        H169   1.082       .  S
C158        H170   1.083       .  S
C159        C160   1.375       .  A
C159        H171   1.082       .  S
C160        H172   1.082       .  S
C161        C162   1.375       .  A
C161        H173   1.083       .  S
C162        H174   1.082       .  S
C163        C402   1.480       .  S
C164        C330   1.480       .  S
C165        C354   1.476       .  S
C166        C378   1.481       .  S
C177        C178   1.536       .  S
C177        C181   1.533       .  S
C177       C1783   1.551       .  S
C177        C714   1.546       .  S
C178        H185   1.086       .  S
C178       C1779   1.368       .  D
C179        C180   1.547       .  S
C179       C1778   1.369       .  D
C179        C306   1.497       .  S
C180        C184   1.536       .  S
C180        C182   1.539       .  S
C180        H186   1.109       .  S
C181        H187   1.087       .  S
C181       C1782   1.362       .  D
C182       C1781   1.361       .  D
C182        C282   1.483       .  S
C183       C1777   1.551       .  S
C183        H188   1.082       .  S
C183        C184   1.369       .  D
C184        C738   1.485       .  S
C189        C190   1.538       .  S
C189        C195   1.548       .  S
C189        C993   1.539       .  S
C189        C234   1.547       .  S
C190        H197   1.086       .  S
C190        C191   1.367       .  D
C191        C192   1.547       .  S
C191        C762   1.500       .  S
C192        C196   1.534       .  S
C192        C994   1.542       .  S
C192        H198   1.110       .  S
C193        C989   1.541       .  S
C193        H199   1.086       .  S
C193        C194   1.369       .  D
C194        C992   1.541       .  S
C194        C786   1.491       .  S
C195        H200   1.081       .  S
C195        C196   1.365       .  D
C196        C258   1.481       .  S
C201        C202   1.545       .  S
C201        C205   1.538       .  S
C201       C1807   1.534       .  S
C201        C541   1.547       .  S
C202        H209   1.080       .  S
C202       C1803   1.368       .  D
C203        C204   1.551       .  S
C203       C1802   1.368       .  D
C203        C498   1.504       .  S
C204        C208   1.548       .  S
C204        C206   1.546       .  S
C204        H210   1.110       .  S
C205        H211   1.086       .  S
C205       C1806   1.364       .  D
C206       C1805   1.365       .  D
C206        C474   1.488       .  S
C207       C1801   1.534       .  S
C207        H212   1.086       .  S
C207        C208   1.367       .  D
C208        C522   1.497       .  S
C213        C219   1.543       .  S
C213        C217   1.538       .  S
C213       C1014   1.546       .  S
C213        C445   1.558       .  S
C214       C1013   1.547   1_545  S
C214        H221   1.080       .  S
C214        C215   1.365       .  D
C215       C1016   1.543   1_545  S
C215        C570   1.494       .  S
C216        C220   1.545       .  S
C216        C218   1.548       .  S
C216       C1015   1.544       .  S
C216        H222   1.108       .  S
C217        H223   1.086       .  S
C217        C218   1.365       .  D
C218        C594   1.491       .  S
C219        H224   1.085       .  S
C219        C220   1.376       .  D
C220        C426   1.508       .  S
C225        C230   1.401       .  A
C225       C1026   1.411       .  A
C225        C239   1.443       .  S
C226        C231   1.485       .  S
C226        C227   1.403       .  A
C226       C1025   1.411       .  A
C227        C228   1.402       .  A
C227        H246   1.085       .  S
C228        C229   1.410       .  A
C228        C240   1.444       .  S
C229       C1030   1.401       .  A
C230       C1029   1.401   1_545  A
C230        H245   1.085       .  S
C231        C232   1.397       .  A
C231       C1036   1.405       .  A
C232        C233   1.403       .  A
C232        H247   1.085       .  S
C233        C234   1.425       .  A
C233        C237   1.444       .  S
C234       C1035   1.416       .  A
C235        C236   1.402       .  A
C235       C1034   1.416       .  A
C235        H248   1.075       .  S
C236       C1031   1.405       .  A
C236        C238   1.446       .  S
C237        N241   1.157       .  T
C238        N242   1.157       .  T
C239        N244   1.157       .  T
C240        N243   1.157       .  T
C249        C250   1.410       .  A
C249        C254   1.404       .  A
C249        C263   1.443       .  S
C250        C255   1.489       .  S
C250       C1051   1.399       .  A
C251        C252   1.398       .  A
C251       C1050   1.398       .  A
C251        H270   1.085       .  S
C252       C1053   1.426       .  A
C252        C264   1.446       .  S
C253        C254   1.410       .  A
C253       C1052   1.426       .  A
C254        H269   1.084       .  S
C255        C260   1.413       .  A
C255       C1056   1.405       .  A
C256        C257   1.402       .  A
C256       C1055   1.405       .  A
C256        H271   1.085       .  S
C257       C1058   1.410       .  A
C257        C261   1.445       .  S
C258        C259   1.401       .  A
C258       C1057   1.411       .  A
C259        C260   1.402       .  A
C259        H272   1.085       .  S
C260        C262   1.443       .  S
C261        N265   1.157       .  T
C262        N266   1.157       .  T
C263        N268   1.157       .  T
C264        N267   1.158       .  T
C273        C278   1.407       .  A
C273       C1874   1.413   1_455  A
C273        C287   1.444       .  S
C274        C279   1.488       .  S
C274        C275   1.400       .  A
C274       C1873   1.413       .  A
C275        C276   1.400       .  A
C275        H294   1.085       .  S
C276        C277   1.413       .  A
C276        C288   1.443       .  S
C277       C1878   1.405       .  A
C278       C1877   1.405   1_455  A
C278        H293   1.084       .  S
C279        C284   1.413       .  A
C279       C1880   1.402       .  A
C280        C281   1.402       .  A
C280       C1879   1.402       .  A
C280        H295   1.085       .  S
C281       C1882   1.412   1_655  A
C281        C285   1.444       .  S
C282        C283   1.401       .  A
C282       C1881   1.412       .  A
C283        C284   1.404       .  A
C283        H296   1.085       .  S
C284        C286   1.444       .  S
C285        N289   1.157       .  T
C286        N290   1.157       .  T
C287        N292   1.157       .  T
C288        N291   1.157       .  T
C297        C298   1.405       .  A
C297        C302   1.396       .  A
C297        C311   1.444       .  S
C298        C303   1.483       .  S
C298       C1899   1.403       .  A
C299        C300   1.405       .  A
C299       C1898   1.404   1_455  A
C299        H318   1.085       .  S
C300       C1901   1.418   1_455  A
C300        C312   1.444       .  S
C301        C302   1.410       .  A
C301       C1900   1.418       .  A
C302        H317   1.085       .  S
C303        C304   1.400       .  A
C303       C1908   1.405       .  A
C304        C305   1.402       .  A
C304        H319   1.085       .  S
C305        C306   1.418       .  A
C305        C309   1.441       .  S
C306       C1907   1.410       .  A
C307        C308   1.401       .  A
C307       C1906   1.410       .  A
C307        H320   1.084       .  S
C308       C1903   1.406   1_455  A
C308        C310   1.444       .  S
C309        N313   1.157       .  T
C310        N314   1.157       .  T
C311        N316   1.157       .  T
C312        N315   1.157       .  T
C321        C322   1.405       .  A
C321        C326   1.393       .  A
C321        C335   1.444       .  S
C322        C327   1.469       .  S
C322        C323   1.399       .  A
C323        C324   1.396   1_554  A
C323        H342   1.085   1_554  S
C324        C325   1.417   1_556  A
C324        C336   1.445       .  S
C325        C326   1.407       .  A
C326        H341   1.085       .  S
C327        C328   1.400       .  A
C327        C332   1.408   1_554  A
C328        C329   1.396       .  A
C328        H343   1.085       .  S
C329        C330   1.411       .  A
C329        C333   1.444       .  S
C330        C331   1.402   1_554  A
C331        C332   1.395       .  A
C331        H344   1.085       .  S
C332        C334   1.445       .  S
C333        N337   1.157       .  T
C334        N338   1.157       .  T
C335        N340   1.157       .  T
C336        N339   1.158       .  T
C345        C346   1.407   1_556  A
C345        C350   1.396       .  A
C345        C359   1.444       .  S
C346        C351   1.467       .  S
C346        C347   1.398       .  A
C347        C348   1.394       .  A
C347        H366   1.085       .  S
C348        C349   1.411       .  A
C348        C360   1.442       .  S
C349        C350   1.404   1_554  A
C350        H365   1.085       .  S
C351        C352   1.399       .  A
C351        C356   1.407   1_554  A
C352        C353   1.395       .  A
C352        H367   1.085       .  S
C353        C354   1.410       .  A
C353        C357   1.444       .  S
C354        C355   1.401   1_554  A
C355        C356   1.395       .  A
C355        H368   1.085       .  S
C356        C358   1.444       .  S
C357        N361   1.157       .  T
C358        N362   1.157       .  T
C359        N364   1.157       .  T
C360        N363   1.156       .  T
C369        C370   1.410   1_554  A
C369        C374   1.398       .  A
C369        C383   1.444       .  S
C370        C375   1.486       .  S
C370        C371   1.403       .  A
C371        C372   1.398       .  A
C371        H390   1.085       .  S
C372        C373   1.417       .  A
C372        C384   1.445       .  S
C373        C374   1.408   1_556  A
C374        H389   1.085       .  S
C375        C376   1.404       .  A
C375        C380   1.414   1_556  A
C376        C377   1.396       .  A
C376        H391   1.085       .  S
C377        C378   1.407       .  A
C377        C381   1.443       .  S
C378        C379   1.403   1_556  A
C379        C380   1.400       .  A
C379        H392   1.085       .  S
C380        C382   1.445       .  S
C381        N385   1.157       .  T
C382        N386   1.157       .  T
C383        N388   1.157       .  T
C384        N387   1.158       .  T
C393        C394   1.406   1_556  A
C393        C398   1.399       .  A
C393        C407   1.444       .  S
C394        C399   1.474       .  S
C394        C395   1.398       .  A
C395        C396   1.397       .  A
C395        H414   1.085       .  S
C396        C397   1.417       .  A
C396        C408   1.444       .  S
C397        C398   1.409   1_554  A
C398        H413   1.085       .  S
C399        C400   1.401       .  A
C399        C404   1.409   1_554  A
C400        C401   1.398       .  A
C400        H415   1.085       .  S
C401        C402   1.410       .  A
C401        C405   1.444       .  S
C402        C403   1.401   1_554  A
C403        C404   1.397       .  A
C403        H416   1.085       .  S
C404        C406   1.443       .  S
C405        N409   1.157       .  T
C406        N410   1.157       .  T
C407        N412   1.157       .  T
C408        N411   1.157       .  T
C417        C418   1.412   1_545  A
C417        C422   1.410       .  A
C417        C431   1.443       .  S
C418        C423   1.490       .  S
C418       C1219   1.399       .  A
C419        C420   1.399       .  A
C419       C1218   1.399       .  A
C419        H438   1.085       .  S
C420       C1221   1.415       .  A
C420        C432   1.443       .  S
C421        C422   1.408   1_565  A
C421       C1220   1.416       .  A
C422        H437   1.084       .  S
C423        C428   1.408   1_565  A
C423       C1224   1.400       .  A
C424        C425   1.408       .  A
C424       C1223   1.401       .  A
C424        H439   1.085       .  S
C425        C426   1.422       .  A
C425        C429   1.442       .  S
C426       C1227   1.410       .  A
C427        C428   1.401       .  A
C427       C1226   1.410   1_545  A
C427        H440   1.084       .  S
C428        C430   1.444       .  S
C429        N433   1.157       .  T
C430        N434   1.157       .  T
C431        N436   1.157       .  T
C432        N435   1.157       .  T
C441        C442   1.410   1_545  A
C441        C446   1.407       .  A
C441        C455   1.445       .  S
C442        C447   1.505       .  S
C442       C1243   1.403       .  A
C443        C444   1.407       .  A
C443       C1242   1.403       .  A
C443        H462   1.085       .  S
C444        C445   1.424       .  A
C444        C456   1.442       .  S
C445       C1246   1.418       .  A
C446       C1245   1.417   1_545  A
C446        H461   1.076       .  S
C447        C452   1.412       .  A
C447       C1248   1.407   1_565  A
C448        C449   1.410       .  A
C448       C1247   1.407       .  A
C448        H463   1.085       .  S
C449       C1250   1.422       .  A
C449        C453   1.444       .  S
C450        C451   1.412       .  A
C450       C1249   1.421   1_565  A
C451        C452   1.404       .  A
C451        H464   1.084       .  S
C452        C454   1.444       .  S
C453        N457   1.157       .  T
C454        N458   1.157       .  T
C455        N460   1.157       .  T
C456        N459   1.156       .  T
C465        C470   1.409       .  A
C465       C2066   1.415   1_455  A
C465        C479   1.442       .  S
C466        C471   1.498       .  S
C466        C467   1.402       .  A
C466       C2065   1.415       .  A
C467        C468   1.401       .  A
C467        H486   1.085       .  S
C468        C469   1.418       .  A
C468        C480   1.444       .  S
C469       C2070   1.405       .  A
C470       C2069   1.405   1_455  A
C470        H485   1.085       .  S
C471        C476   1.415       .  A
C471       C2072   1.406       .  A
C472        C473   1.407       .  A
C472       C2071   1.406       .  A
C472        H487   1.084       .  S
C473       C2074   1.412   1_655  A
C473        C477   1.443       .  S
C474        C475   1.401       .  A
C474       C2073   1.412       .  A
C475        C476   1.405       .  A
C475        H488   1.085       .  S
C476        C478   1.443       .  S
C477        N481   1.157       .  T
C478        N482   1.157       .  T
C479        N484   1.157       .  T
C480        N483   1.157       .  T
C489        C490   1.409       .  A
C489        C494   1.404       .  A
C489        C503   1.443       .  S
C490        C495   1.496       .  S
C490       C2091   1.406       .  A
C491        C492   1.408       .  A
C491       C2090   1.407   1_455  A
C491        H510   1.085       .  S
C492       C2093   1.414   1_455  A
C492        C504   1.442       .  S
C493        C494   1.409       .  A
C493       C2092   1.414       .  A
C494        H509   1.085       .  S
C495        C496   1.405       .  A
C495       C2100   1.409       .  A
C496        C497   1.408       .  A
C496        H511   1.085       .  S
C497        C498   1.415       .  A
C497        C501   1.442       .  S
C498       C2099   1.411       .  A
C499        C500   1.405       .  A
C499       C2098   1.411       .  A
C499        H512   1.084       .  S
C500       C2095   1.409   1_455  A
C500        C502   1.445       .  S
C501        N505   1.157       .  T
C502        N506   1.157       .  T
C503        N508   1.157       .  T
C504        N507   1.157       .  T
C513        C514   1.409       .  A
C513        C518   1.401       .  A
C513        C527   1.445       .  S
C514        C519   1.491       .  S
C514        C515   1.406       .  A
C515        C516   1.408       .  A
C515        H534   1.084       .  S
C516        C517   1.414       .  A
C516        C528   1.444       .  S
C517        C518   1.409       .  A
C518        H533   1.085       .  S
C519        C520   1.402       .  A
C519        C524   1.410       .  A
C520        C521   1.403       .  A
C520        H535   1.085       .  S
C521        C522   1.418       .  A
C521        C525   1.445       .  S
C522        C523   1.405       .  A
C523        C524   1.407       .  A
C523        H536   1.084       .  S
C524        C526   1.443       .  S
C525        N529   1.157       .  T
C526        N530   1.157       .  T
C527        N532   1.157       .  T
C528        N531   1.157       .  T
C537        C538   1.410       .  A
C537        C542   1.405       .  A
C537        C551   1.445       .  S
C538        C543   1.499       .  S
C538        C539   1.403       .  A
C539        C540   1.401       .  A
C539        H558   1.085       .  S
C540        C541   1.421       .  A
C540        C552   1.444       .  S
C541        C542   1.416       .  A
C542        H557   1.076       .  S
C543        C544   1.407       .  A
C543        C548   1.410       .  A
C544        C545   1.408       .  A
C544        H559   1.084       .  S
C545        C546   1.420       .  A
C545        C549   1.443       .  S
C546        C547   1.412       .  A
C547        C548   1.399       .  A
C547        H560   1.084       .  S
C548        C550   1.446       .  S
C549        N553   1.157       .  T
C550        N554   1.157       .  T
C551        N556   1.157       .  T
C552       N2155   1.157       .  T
N555       C2152   1.157       .  T
C561        C562   1.407       .  A
C561        C566   1.403       .  A
C561        C575   1.444       .  S
C562        C567   1.489       .  S
C562        C563   1.403       .  A
C563        C564   1.404       .  A
C563        H582   1.085       .  S
C564        C565   1.415       .  A
C564        C576   1.441       .  S
C565        C566   1.409       .  A
C566        H581   1.085       .  S
C567        C568   1.401       .  A
C567        C572   1.409       .  A
C568        C569   1.405       .  A
C568        H583   1.085       .  S
C569        C570   1.416       .  A
C569        C573   1.441       .  S
C570        C571   1.406       .  A
C571        C572   1.403       .  A
C571        H584   1.085       .  S
C572        C574   1.444       .  S
C573        N577   1.157       .  T
C574        N578   1.157       .  T
C575        N580   1.157       .  T
C576        N579   1.156       .  T
C585        C586   1.416       .  A
C585        C590   1.410       .  A
C585        C599   1.444       .  S
C586        C591   1.499       .  S
C586        C587   1.403       .  A
C587        C588   1.401       .  A
C587        H606   1.085       .  S
C588        C589   1.413       .  A
C588        C600   1.444       .  S
C589        C590   1.406       .  A
C590        H605   1.085       .  S
C591        C592   1.404       .  A
C591        C596   1.416       .  A
C592        C593   1.405       .  A
C592        H607   1.085       .  S
C593        C594   1.414       .  A
C593        C597   1.443       .  S
C594        C595   1.401       .  A
C595        C596   1.407       .  A
C595        H608   1.084       .  S
C596        C598   1.443       .  S
C597        N601   1.157       .  T
C598        N602   1.157       .  T
C599        N604   1.157       .  T
C600        N603   1.157       .  T
C609        C610   1.407       .  A
C609        C614   1.395       .  A
C609        C623   1.444       .  S
C610        C615   1.470       .  S
C610        C611   1.401       .  A
C611        C612   1.397       .  A
C611        H630   1.085       .  S
C612        C613   1.408       .  A
C612        C624   1.443       .  S
C613        C614   1.402       .  A
C614        H629   1.085       .  S
C615        C616   1.397       .  A
C615        C620   1.404       .  A
C616        C617   1.396       .  A
C616        H631   1.085       .  S
C617        C618   1.420       .  A
C617        C621   1.445       .  S
C618        C619   1.411       .  A
C619        C620   1.397       .  A
C619        H632   1.084       .  S
C620        C622   1.444       .  S
C621        N625   1.158       .  T
C622        N626   1.157       .  T
C623        N628   1.157       .  T
C624        N627   1.157       .  T
C633        C634   1.410       .  A
C633        C638   1.396       .  A
C633        C647   1.444       .  S
C634        C639   1.469       .  S
C634        C635   1.400       .  A
C635        C636   1.394       .  A
C635        H654   1.085       .  S
C636        C637   1.408       .  A
C636        C648   1.444       .  S
C637        C638   1.400       .  A
C638        H653   1.085       .  S
C639        C640   1.399       .  A
C639        C644   1.405       .  A
C640        C641   1.398       .  A
C640        H655   1.085       .  S
C641        C642   1.417       .  A
C641        C645   1.445       .  S
C642        C643   1.407       .  A
C643        C644   1.394       .  A
C643        H656   1.085       .  S
C644        C646   1.445       .  S
C645        N649   1.158       .  T
C646        N650   1.157       .  T
C647        N652   1.157       .  T
C648        N651   1.157       .  T
C657        C658   1.409       .  A
C657        C662   1.397       .  A
C657        C671   1.444       .  S
C658        C663   1.478       .  S
C658        C659   1.404       .  A
C659        C660   1.401       .  A
C659        H678   1.084       .  S
C660        C661   1.409       .  A
C660        C672   1.444       .  S
C661        C662   1.401       .  A
C662        H677   1.085       .  S
C663        C664   1.398       .  A
C663        C668   1.407       .  A
C664        C665   1.399       .  A
C664        H679   1.085       .  S
C665        C666   1.415       .  A
C665        C669   1.440       .  S
C666        C667   1.407       .  A
C667        C668   1.400       .  A
C667        H680   1.084       .  S
C668        C670   1.443       .  S
C669        N673   1.155       .  T
C670        N674   1.157       .  T
C671        N676   1.157       .  T
C672        N675   1.157       .  T
C681        C682   1.408       .  A
C681        C686   1.395       .  A
C681        C695   1.446       .  S
C682        C687   1.474       .  S
C682        C683   1.400       .  A
C683        C684   1.398       .  A
C683        H702   1.085       .  S
C684        C685   1.415       .  A
C684        C696   1.445       .  S
C685        C686   1.406       .  A
C686        H701   1.085       .  S
C687        C688   1.401       .  A
C687        C692   1.410       .  A
C688        C689   1.396       .  A
C688        H703   1.085       .  S
C689        C690   1.409       .  A
C689        C693   1.444       .  S
C690        C691   1.400       .  A
C691        C692   1.395       .  A
C691        H704   1.085       .  S
C692        C694   1.444       .  S
C693        N697   1.157       .  T
C694        N698   1.157       .  T
C695        N700   1.157       .  T
C696        N699   1.157       .  T
C705        C706   1.414       .  A
C705        C710   1.407       .  A
C705        C719   1.443       .  S
C706        C711   1.495       .  S
C706        C707   1.403       .  A
C707        C708   1.401       .  A
C707        H726   1.085       .  S
C708        C709   1.414       .  A
C708        C720   1.444       .  S
C709        C710   1.405       .  A
C710        H725   1.085       .  S
C711        C712   1.402       .  A
C711        C716   1.410       .  A
C712        C713   1.406       .  A
C712        H727   1.085       .  S
C713        C714   1.426       .  A
C713        C717   1.445       .  S
C714        C715   1.411       .  A
C715        C716   1.402       .  A
C715        H728   1.077       .  S
C716        C718   1.444       .  S
C717        N721   1.158       .  T
C718        N722   1.157       .  T
C719        N724   1.157       .  T
C720        N723   1.157       .  T
C729        C730   1.412       .  A
C729        C734   1.403       .  A
C729        C743   1.445       .  S
C730        C735   1.489       .  S
C730        C731   1.404       .  A
C731        C732   1.404       .  A
C731        H750   1.085       .  S
C732        C733   1.413       .  A
C732        C744   1.444       .  S
C733        C734   1.406       .  A
C734        H749   1.085       .  S
C735        C736   1.402       .  A
C735        C740   1.414       .  A
C736        C737   1.400       .  A
C736        H751   1.085       .  S
C737        C738   1.411       .  A
C737        C741   1.443       .  S
C738        C739   1.402       .  A
C739        C740   1.404       .  A
C739        H752   1.084       .  S
C740        C742   1.443       .  S
C741        N745   1.157       .  T
C742        N746   1.157       .  T
C743        N748   1.157       .  T
C744        N747   1.157       .  T
C753        C754   1.411       .  A
C753        C758   1.402       .  A
C753        C767   1.443       .  S
C754        C759   1.500       .  S
C754        C755   1.409       .  A
C755        C756   1.409       .  A
C755        H774   1.084       .  S
C756        C757   1.413       .  A
C756        C768   1.443       .  S
C757        C758   1.407       .  A
C758        H773   1.085       .  S
C759        C760   1.408       .  A
C759        C764   1.409       .  A
C760        C761   1.409       .  A
C760        H775   1.085       .  S
C761        C762   1.415       .  A
C761        C765   1.444       .  S
C762        C763   1.409       .  A
C763        C764   1.403       .  A
C763        H776   1.084       .  S
C764        C766   1.444       .  S
C765        N769   1.157       .  T
C766        N770   1.157       .  T
C767        N772   1.157       .  T
C768        N771   1.157       .  T
C777        C778   1.410       .  A
C777        C782   1.406       .  A
C777        C791   1.445       .  S
C778        C783   1.490       .  S
C778        C779   1.403       .  A
C779        C780   1.403       .  A
C779        H798   1.085       .  S
C780        C781   1.414       .  A
C780        C792   1.443       .  S
C781        C782   1.410       .  A
C782        H797   1.084       .  S
C783        C784   1.402       .  A
C783        C788   1.411       .  A
C784        C785   1.401       .  A
C784        H799   1.085       .  S
C785        C786   1.413       .  A
C785        C789   1.442       .  S
C786        C787   1.406       .  A
C787        C788   1.405       .  A
C787        H800   1.084       .  S
C788        C790   1.443       .  S
C789        N793   1.157       .  T
C790        N794   1.157       .  T
C791        N796   1.157       .  T
C792        N795   1.157       .  T
O801       Zr837   2.474       .  S
O801        C812   1.299       .  A
O802       Zr836   2.464       .  S
O802        C813   1.297       .  A
O803       Zr809   2.425       .  S
O803        C814   1.288       .  A
O804       Zr809   2.430       .  S
O804        C815   1.290       .  A
O805       Zr839   2.425       .  S
O805        C815   1.289       .  A
O806       Zr838   2.422       .  S
O806        C814   1.289       .  A
O807       Zr809   2.430       .  S
O807        C813   1.292       .  A
O808       Zr809   2.425       .  S
O808        C812   1.290       .  A
Zr809       O810   2.331       .  S
Zr809       O811   2.338       .  S
Zr809       O819   2.338       .  S
Zr809       O817   2.332       .  S
O810       Zr836   2.348       .  S
O810       Zr839   2.335       .  S
O811       Zr837   2.352       .  S
O811       Zr838   2.335       .  S
C812       C1581   1.488       .  S
C813       C1365   1.502       .  S
C814       C1418   1.485       .  S
C815       C1442   1.478       .  S
H816        O817   0.965       .  S
O817       Zr836   2.351       .  S
O817       Zr838   2.344       .  S
H818        O819   0.966       .  S
O819       Zr837   2.346       .  S
O819       Zr839   2.330       .  S
O820       Zr836   2.462       .  S
O820        C843   1.297       .  A
O821       Zr837   2.480       .  S
O821        C844   1.300       .  A
O822       Zr838   2.428       .  S
O822        C845   1.291       .  A
O823       Zr839   2.413       .  S
O823        C846   1.289       .  A
O824       Zr839   2.429       .  S
O824        C847   1.290       .  A
O825       Zr838   2.439       .  S
O825        C848   1.293       .  A
O826       Zr840   2.444       .  S
O826        C849   1.293       .  A
O827       Zr840   2.439       .  S
O827        C850   1.293       .  A
O828       Zr838   2.422       .  S
O828        C849   1.289       .  A
O829       Zr839   2.425       .  S
O829        C850   1.289       .  A
O830       Zr836   2.480       .  S
O830        C845   1.301       .  A
O831       Zr837   2.451       .  S
O831        C848   1.295       .  A
O832       Zr837   2.463       .  S
O832        C847   1.297       .  A
O833       Zr836   2.480       .  S
O833        C846   1.300       .  A
O834       Zr840   2.437       .  S
O834        C843   1.293       .  A
O835       Zr840   2.423       .  S
O835        C844   1.290       .  A
Zr836       O842   2.358       .  S
Zr836       O854   2.351       .  S
Zr837       O841   2.344       .  S
Zr837       O852   2.350       .  S
Zr838       O842   2.344       .  S
Zr838       O852   2.338       .  S
Zr839       O841   2.331       .  S
Zr839       O854   2.340       .  S
Zr840       O841   2.339       .  S
Zr840       O842   2.338       .  S
Zr840       O854   2.339       .  S
Zr840       O852   2.340       .  S
C843       C1389   1.488       .  S
C844       C1557   1.489       .  S
C845       C1317   1.494       .  S
C846       C1346   1.504       .  S
C847       C1509   1.485       .  S
C848       C1533   1.484       .  S
C849       C1485   1.484       .  S
C850       C1466   1.490       .  S
H851        O852   0.964       .  S
H853        O854   0.966       .  S
N855        H887   1.039       .  S
N855        C859   1.351       .  A
N856       C2463   1.349   1_455  A
N856        C864   1.348       .  A
N857        H888   1.038       .  S
N857        C861   1.350       .  A
N858       C2465   1.350   1_455  A
N858        C866   1.352       .  A
C859        C867   1.387       .  A
C859        C875   1.410       .  A
C860        C876   1.413       .  A
C860        C868   1.387       .  A
C861        C869   1.387       .  A
C861        C878   1.409       .  A
C862        C877   1.410       .  A
C862        C870   1.387       .  A
C863       N2456   1.349       .  A
C863        C875   1.407       .  A
C863        C871   1.386       .  A
C864        C878   1.409       .  A
C864        C872   1.386       .  A
C865       N2458   1.350       .  A
C865        C873   1.387       .  A
C865        C876   1.413       .  A
C866        C874   1.385       .  A
C866        C877   1.412       .  A
C867        H879   1.082       .  S
C868        H880   1.082       .  S
C869        H881   1.082       .  S
C870        H882   1.082       .  S
C871       C2472   1.372       .  A
C871        H883   1.082       .  S
C872       C2471   1.372       .  A
C872        H884   1.082       .  S
C873       C2474   1.374       .  A
C873        H885   1.082       .  S
C874       C2473   1.374   1_455  A
C874        H886   1.082       .  S
C875       C1413   1.478       .  S
C876       C1490   1.482       .  S
C877       C1461   1.484       .  S
C878       C1437   1.477       .  S
O889       Zr925   2.479       .  S
O889        C900   1.300       .  A
O890       Zr924   2.459       .  S
O890        C901   1.296       .  A
O891      Zr2497   2.416   1_455  S
O891        C902   1.287       .  A
O892       Zr897   2.420       .  S
O892        C903   1.288       .  A
O893       Zr927   2.424   1_554  S
O893        C903   1.289       .  A
O894       Zr926   2.429       .  S
O894        C902   1.291       .  A
O895       Zr897   2.431       .  S
O895        C901   1.291       .  A
O896       Zr897   2.425   1_556  S
O896        C900   1.290       .  A
Zr897      O2491   2.414       .  S
Zr897       O898   2.334       .  S
Zr897      O2499   2.341   1_554  S
Zr897       O907   2.337   1_554  S
Zr897      O2505   2.334       .  S
O898       Zr924   2.353       .  S
O898       Zr927   2.340   1_554  S
O899      Zr2497   2.341   1_456  S
O899      Zr2525   2.348   1_455  S
O899       Zr926   2.333   1_556  S
C900       C1293   1.493       .  S
C901       C1077   1.481       .  S
C902       C1125   1.478       .  S
C903       C1149   1.466       .  S
H904        O905   0.964       .  S
O905      Zr2497   2.335   1_455  S
O905      Zr2524   2.346   1_455  S
O905       Zr926   2.340       .  S
H906        O907   0.965       .  S
O907       Zr925   2.359       .  S
O907       Zr927   2.339       .  S
O908        C931   1.297       .  A
O909        C932   1.300       .  A
O910       Zr926   2.429       .  S
O910        C933   1.290       .  A
O911       Zr927   2.429   1_554  S
O911        C934   1.290   1_565  A
O912       Zr927   2.442       .  S
O913       Zr926   2.442   1_556  S
O914      Zr2528   2.422   1_454  S
O914        C937   1.289       .  A
O915       Zr928   2.442       .  S
O915        C938   1.293       .  A
O916        C937   1.290       .  A
O917        C938   1.290       .  A
O918      Zr2524   2.451   1_455  S
O918        C933   1.294       .  A
O919      Zr1725   2.468   1_455  S
O919        C936   1.298       .  A
O920        C935   1.297       .  A
O921       Zr924   2.460   1_545  S
O921        C934   1.298       .  A
O922       Zr928   2.426   1_554  S
O922        C931   1.291       .  A
O923       Zr928   2.416       .  S
O923        C932   1.289       .  A
Zr924      O2518   2.452       .  S
Zr924      O2505   2.345       .  S
Zr924      O1730   2.339   1_565  S
Zr925      O1719   2.467       .  S
Zr925      O2499   2.348       .  S
Zr925      O1740   2.349   1_565  S
Zr928      O2514   2.421   1_556  S
Zr928       O929   2.334       .  S
Zr928      O2530   2.331   1_556  S
Zr928       O942   2.328   1_556  S
Zr928      O2540   2.346       .  S
O930      Zr1724   2.341   1_455  S
O930      Zr2528   2.331   1_454  S
C931       C1101   1.494       .  S
C932       C1269   1.487       .  S
C933       C1029   1.469       .  S
C934       C1053   1.500       .  S
C935       C1221   1.490       .  S
C936       C1250   1.510       .  S
C937       C1197   1.480       .  S
C938       C1173   1.489       .  S
H939        O940   0.965       .  S
O940      Zr1725   2.350   1_455  S
O940      Zr2528   2.346   1_455  S
H941        O942   0.964       .  S
N943        H975   1.040       .  S
N943        C948   1.350       .  A
N943        C947   1.349   1_554  A
N944        C951   1.348       .  A
N944        C952   1.349       .  A
N945        H976   1.040       .  S
N945        C950   1.349   1_554  A
N945        C949   1.349   1_554  A
N946        C953   1.346       .  A
N946        C954   1.346       .  A
C947        C955   1.387       .  A
C947        C963   1.408   1_556  A
C948        C964   1.409       .  A
C948        C956   1.387   1_554  A
C949        C957   1.387       .  A
C949        C966   1.408       .  A
C950        C965   1.407   1_556  A
C950        C958   1.387       .  A
C951        C963   1.408       .  A
C951        C959   1.386       .  A
C952        C966   1.408   1_554  A
C952        C960   1.385       .  A
C953        C961   1.387       .  A
C953        C964   1.406       .  A
C954        C962   1.386       .  A
C954        C965   1.405       .  A
C955        C956   1.376       .  A
C955        H967   1.082       .  S
C956        H968   1.082       .  S
C957        C958   1.376       .  A
C957        H969   1.082       .  S
C958        H970   1.083       .  S
C959        C960   1.375       .  A
C959        H971   1.082       .  S
C960        H972   1.082       .  S
C961        C962   1.375       .  A
C961        H973   1.082       .  S
C962        H974   1.082       .  S
C963       C1202   1.478       .  S
C964       C1130   1.478       .  S
C965       C1154   1.475       .  S
C966       C1178   1.480       .  S
C977        C978   1.538       .  S
C977       C2583   1.550       .  S
C977        C981   1.531       .  S
C977       C1514   1.543       .  S
C978        H985   1.086       .  S
C978       C2579   1.370       .  D
C979        C980   1.550       .  S
C979       C2578   1.369       .  D
C979       C1106   1.501       .  S
C980        C984   1.537       .  S
C980        C982   1.540       .  S
C980        H986   1.109       .  S
C981        H987   1.087       .  S
C981       C2582   1.360       .  D
C982       C2581   1.360       .  D
C982       C1082   1.482       .  S
C983       C2577   1.550       .  S
C983        H988   1.082       .  S
C983        C984   1.368       .  D
C984       C1538   1.484       .  S
C989        C990   1.538   1_545  S
C989        C995   1.548       .  S
C989       C1034   1.547       .  S
C990        H997   1.086       .  S
C990        C991   1.368       .  D
C991        C992   1.547   1_565  S
C991       C1562   1.501       .  S
C992        C996   1.532       .  S
C992        H998   1.110       .  S
C993        H999   1.086       .  S
C993        C994   1.368       .  D
C994       C1586   1.491       .  S
C995       H1000   1.080       .  S
C995        C996   1.363       .  D
C996       C1058   1.479       .  S
C1001      C1002   1.545       .  S
C1001      C2607   1.534       .  S
C1001      C1005   1.538       .  S
C1001      C1341   1.548       .  S
C1002      H1009   1.080       .  S
C1002      C2603   1.367       .  D
C1003      C1004   1.552       .  S
C1003      C2602   1.367       .  D
C1003      C1298   1.505       .  S
C1004      C1008   1.547       .  S
C1004      C1006   1.545       .  S
C1004      H1010   1.110       .  S
C1005      H1011   1.086       .  S
C1005      C2606   1.365       .  D
C1006      C2605   1.365       .  D
C1006      C1274   1.488       .  S
C1007      C2601   1.534       .  S
C1007      H1012   1.086       .  S
C1007      C1008   1.367       .  D
C1008      C1322   1.496       .  S
C1013      C1019   1.545       .  S
C1013      C1017   1.536       .  S
C1013      C1245   1.556       .  S
C1014      H1021   1.080       .  S
C1014      C1015   1.364       .  D
C1015      C1370   1.494       .  S
C1016      C1020   1.544       .  S
C1016      C1018   1.547       .  S
C1016      H1022   1.107       .  S
C1017      H1023   1.086       .  S
C1017      C1018   1.363       .  D
C1018      C1394   1.486       .  S
C1019      H1024   1.085       .  S
C1019      C1020   1.377       .  D
C1020      C1226   1.508       .  S
C1025      C1030   1.401       .  A
C1025      C1039   1.443       .  S
C1026      C1031   1.483       .  S
C1026      C1027   1.403   1_545  A
C1027      C1028   1.401       .  A
C1027      H1046   1.085       .  S
C1028      C1029   1.409       .  A
C1028      C1040   1.444       .  S
C1030      H1045   1.085       .  S
C1031      C1032   1.397   1_545  A
C1032      C1033   1.403       .  A
C1032      H1047   1.085       .  S
C1033      C1034   1.424   1_565  A
C1033      C1037   1.443       .  S
C1035      C1036   1.403       .  A
C1035      H1048   1.076       .  S
C1036      C1038   1.445       .  S
C1037      N1041   1.157       .  T
C1038      N1042   1.157       .  T
C1039      N1044   1.157       .  T
C1040      N1043   1.157       .  T
C1049      C1050   1.410       .  A
C1049      C1054   1.404       .  A
C1049      C1063   1.443       .  S
C1050      C1055   1.487       .  S
C1051      C1052   1.399       .  A
C1051      H1070   1.085       .  S
C1052      C1064   1.446       .  S
C1053      C1054   1.410       .  A
C1054      H1069   1.084   1_545  S
C1055      C1060   1.412   1_545  A
C1056      C1057   1.402       .  A
C1056      H1071   1.085       .  S
C1057      C1061   1.445       .  S
C1058      C1059   1.400   1_545  A
C1059      C1060   1.401       .  A
C1059      H1072   1.085       .  S
C1060      C1062   1.443       .  S
C1061      N1065   1.157       .  T
C1062      N1066   1.157       .  T
C1063      N1068   1.157       .  T
C1064      N1067   1.158       .  T
C1073      C2674   1.413   1_455  A
C1073      C1078   1.405       .  A
C1073      C1087   1.444       .  S
C1074      C1079   1.487       .  S
C1074      C2673   1.413       .  A
C1074      C1075   1.401       .  A
C1075      C1076   1.400       .  A
C1075      H1094   1.085       .  S
C1076      C1077   1.413       .  A
C1076      C1088   1.443       .  S
C1077      C2678   1.404       .  A
C1078      C2677   1.404   1_455  A
C1078      H1093   1.084       .  S
C1079      C2680   1.402       .  A
C1079      C1084   1.413       .  A
C1080      C2679   1.402       .  A
C1080      C1081   1.401       .  A
C1080      H1095   1.085       .  S
C1081      C2682   1.413   1_655  A
C1081      C1085   1.444       .  S
C1082      C2681   1.413       .  A
C1082      C1083   1.400       .  A
C1083      C1084   1.403       .  A
C1083      H1096   1.085       .  S
C1084      C1086   1.444       .  S
C1085      N1089   1.157       .  T
C1086      N1090   1.157       .  T
C1087      N1092   1.157       .  T
C1088      N1091   1.157       .  T
C1097      C1098   1.407       .  A
C1097      C1102   1.399       .  A
C1097      C1111   1.444       .  S
C1098      C1103   1.488       .  S
C1098      C2699   1.405       .  A
C1099      C2698   1.405   1_455  A
C1099      C1100   1.407       .  A
C1099      H1118   1.085       .  S
C1100      C2701   1.417   1_455  A
C1100      C1112   1.444       .  S
C1101      C2700   1.418       .  A
C1101      C1102   1.410       .  A
C1102      H1117   1.085       .  S
C1103      C1104   1.402       .  A
C1103      C2708   1.406       .  A
C1104      C1105   1.405       .  A
C1104      H1119   1.085       .  S
C1105      C1106   1.418       .  A
C1105      C1109   1.442       .  S
C1106      C2707   1.411       .  A
C1107      C2706   1.411       .  A
C1107      C1108   1.402       .  A
C1107      H1120   1.084       .  S
C1108      C2703   1.407   1_455  A
C1108      C1110   1.444       .  S
C1109      N1113   1.157       .  T
C1110      N1114   1.157       .  T
C1111      N1116   1.157       .  T
C1112      N1115   1.157       .  T
C1121      C1122   1.405       .  A
C1121      C1126   1.393       .  A
C1121      C1135   1.444       .  S
C1122      C1127   1.469       .  S
C1122      C1123   1.398       .  A
C1123      C1124   1.396   1_554  A
C1123      H1142   1.085   1_554  S
C1124      C1125   1.418   1_556  A
C1124      C1136   1.445       .  S
C1125      C1126   1.407       .  A
C1126      H1141   1.085       .  S
C1127      C1128   1.400       .  A
C1127      C1132   1.408   1_554  A
C1128      C1129   1.396       .  A
C1128      H1143   1.085       .  S
C1129      C1130   1.411       .  A
C1129      C1133   1.444       .  S
C1130      C1131   1.402   1_554  A
C1131      C1132   1.394       .  A
C1131      H1144   1.085       .  S
C1132      C1134   1.444       .  S
C1133      N1137   1.157       .  T
C1134      N1138   1.157       .  T
C1135      N1140   1.157       .  T
C1136      N1139   1.158       .  T
C1145      C1146   1.406   1_556  A
C1145      C1150   1.396       .  A
C1145      C1159   1.444       .  S
C1146      C1151   1.466       .  S
C1146      C1147   1.398       .  A
C1147      C1148   1.394       .  A
C1147      H1166   1.085       .  S
C1148      C1149   1.411       .  A
C1148      C1160   1.443       .  S
C1149      C1150   1.403   1_554  A
C1150      H1165   1.085       .  S
C1151      C1152   1.399       .  A
C1151      C1156   1.407   1_554  A
C1152      C1153   1.395       .  A
C1152      H1167   1.085       .  S
C1153      C1154   1.410       .  A
C1153      C1157   1.444       .  S
C1154      C1155   1.401   1_554  A
C1155      C1156   1.395       .  A
C1155      H1168   1.085       .  S
C1156      C1158   1.444       .  S
C1157      N1161   1.157       .  T
C1158      N1162   1.157       .  T
C1159      N1164   1.157       .  T
C1160      N1163   1.156       .  T
C1169      C1170   1.410       .  A
C1169      C1174   1.400       .  A
C1169      C1183   1.444       .  S
C1170      C1175   1.486       .  S
C1170      C1171   1.403   1_554  A
C1171      C1172   1.398       .  A
C1171      H1190   1.085       .  S
C1172      C1173   1.417       .  A
C1172      C1184   1.445       .  S
C1173      C1174   1.409   1_556  A
C1174      H1189   1.085       .  S
C1175      C1176   1.405   1_554  A
C1175      C1180   1.414       .  A
C1176      C1177   1.396       .  A
C1176      H1191   1.085       .  S
C1177      C1178   1.406       .  A
C1177      C1181   1.443       .  S
C1178      C1179   1.402   1_556  A
C1179      C1180   1.400       .  A
C1179      H1192   1.085       .  S
C1180      C1182   1.444       .  S
C1181      N1185   1.157       .  T
C1182      N1186   1.157       .  T
C1183      N1188   1.157       .  T
C1184      N1187   1.158       .  T
C1193      C1194   1.406   1_556  A
C1193      C1198   1.398       .  A
C1193      C1207   1.444       .  S
C1194      C1199   1.471       .  S
C1194      C1195   1.397       .  A
C1195      C1196   1.396       .  A
C1195      H1214   1.085       .  S
C1196      C1197   1.416       .  A
C1196      C1208   1.444       .  S
C1197      C1198   1.408   1_554  A
C1198      H1213   1.085       .  S
C1199      C1200   1.401       .  A
C1199      C1204   1.408   1_554  A
C1200      C1201   1.397       .  A
C1200      H1215   1.085       .  S
C1201      C1202   1.410       .  A
C1201      C1205   1.444       .  S
C1202      C1203   1.401   1_554  A
C1203      C1204   1.397       .  A
C1203      H1216   1.085       .  S
C1204      C1206   1.443       .  S
C1205      N1209   1.157       .  T
C1206      N1210   1.157       .  T
C1207      N1212   1.157       .  T
C1208      N1211   1.157       .  T
C1217      C1218   1.413       .  A
C1217      C1222   1.411       .  A
C1217      C1231   1.443       .  S
C1218      C1223   1.491       .  S
C1219      C1220   1.399       .  A
C1219      H1238   1.085       .  S
C1220      C1232   1.443       .  S
C1221      C1222   1.409       .  A
C1222      H1237   1.084       .  S
C1223      C1228   1.408       .  A
C1224      C1225   1.408       .  A
C1224      H1239   1.085       .  S
C1225      C1226   1.423       .  A
C1225      C1229   1.442       .  S
C1227      C1228   1.401       .  A
C1227      H1240   1.084       .  S
C1228      C1230   1.444       .  S
C1229      N1233   1.157       .  T
C1230      N1234   1.157       .  T
C1231      N1236   1.157       .  T
C1232      N1235   1.157       .  T
C1241      C1242   1.410       .  A
C1241      C1246   1.407       .  A
C1241      C1255   1.445       .  S
C1242      C1247   1.505       .  S
C1243      C1244   1.406       .  A
C1243      H1262   1.085       .  S
C1244      C1245   1.424       .  A
C1244      C1256   1.443       .  S
C1246      H1261   1.076       .  S
C1247      C1252   1.412       .  A
C1248      C1249   1.409       .  A
C1248      H1263   1.085       .  S
C1249      C1253   1.444       .  S
C1250      C1251   1.412       .  A
C1251      C1252   1.404       .  A
C1251      H1264   1.084       .  S
C1252      C1254   1.444       .  S
C1253      N1257   1.157       .  T
C1254      N1258   1.157       .  T
C1255      N1260   1.157       .  T
C1256      N1259   1.157       .  T
C1265      C2866   1.416   1_455  A
C1265      C1270   1.407       .  A
C1265      C1279   1.443       .  S
C1266      C1271   1.497       .  S
C1266      C2865   1.416       .  A
C1266      C1267   1.402       .  A
C1267      C1268   1.401       .  A
C1267      H1286   1.085       .  S
C1268      C1269   1.416       .  A
C1268      C1280   1.444       .  S
C1269      C2870   1.404       .  A
C1270      C2869   1.404   1_455  A
C1270      H1285   1.085       .  S
C1271      C2872   1.405       .  A
C1271      C1276   1.416       .  A
C1272      C2871   1.405       .  A
C1272      C1273   1.405       .  A
C1272      H1287   1.085       .  S
C1273      C2874   1.412   1_655  A
C1273      C1277   1.443       .  S
C1274      C2873   1.412       .  A
C1274      C1275   1.401       .  A
C1275      C1276   1.405       .  A
C1275      H1288   1.085       .  S
C1276      C1278   1.443       .  S
C1277      N1281   1.157       .  T
C1278      N1282   1.157       .  T
C1279      N1284   1.157       .  T
C1280      N1283   1.157       .  T
C1289      C1290   1.409       .  A
C1289      C1294   1.403       .  A
C1289      C1303   1.444       .  S
C1290      C1295   1.496       .  S
C1290      C2891   1.406       .  A
C1291      C2890   1.406   1_455  A
C1291      C1292   1.407       .  A
C1291      H1310   1.085       .  S
C1292      C2893   1.414   1_455  A
C1292      C1304   1.442       .  S
C1293      C2892   1.414       .  A
C1293      C1294   1.409       .  A
C1294      H1309   1.085       .  S
C1295      C1296   1.404       .  A
C1295      C2900   1.409       .  A
C1296      C1297   1.407       .  A
C1296      H1311   1.085       .  S
C1297      C1298   1.415       .  A
C1297      C1301   1.441       .  S
C1298      C2899   1.412       .  A
C1299      C2898   1.412       .  A
C1299      C1300   1.405       .  A
C1299      H1312   1.084       .  S
C1300      C2895   1.409   1_455  A
C1300      C1302   1.445       .  S
C1301      N1305   1.157       .  T
C1302      N1306   1.157       .  T
C1303      N1308   1.157       .  T
C1304      N1307   1.157       .  T
C1313      C1314   1.410       .  A
C1313      C1318   1.404       .  A
C1313      C1327   1.445       .  S
C1314      C1319   1.494       .  S
C1314      C1315   1.405       .  A
C1315      C1316   1.409       .  A
C1315      H1334   1.084       .  S
C1316      C1317   1.414       .  A
C1316      C1328   1.443       .  S
C1317      C1318   1.410       .  A
C1318      H1333   1.085       .  S
C1319      C1320   1.403       .  A
C1319      C1324   1.411       .  A
C1320      C1321   1.404       .  A
C1320      H1335   1.085       .  S
C1321      C1322   1.416       .  A
C1321      C1325   1.445       .  S
C1322      C1323   1.405       .  A
C1323      C1324   1.408       .  A
C1323      H1336   1.084       .  S
C1324      C1326   1.443       .  S
C1325      N1329   1.157       .  T
C1326      N1330   1.157       .  T
C1327      N1332   1.157       .  T
C1328      N1331   1.157       .  T
C1337      C1338   1.408       .  A
C1337      C1342   1.403       .  A
C1337      C1351   1.445       .  S
C1338      C1343   1.495       .  S
C1338      C1339   1.401       .  A
C1339      C1340   1.402       .  A
C1339      H1358   1.085       .  S
C1340      C1341   1.423       .  A
C1340      C1352   1.443       .  S
C1341      C1342   1.417       .  A
C1342      H1357   1.077       .  S
C1343      C1344   1.405       .  A
C1343      C1348   1.409       .  A
C1344      C1345   1.407       .  A
C1344      H1359   1.085       .  S
C1345      C1346   1.418       .  A
C1345      C1349   1.442       .  S
C1346      C1347   1.414       .  A
C1347      C1348   1.399       .  A
C1347      H1360   1.084       .  S
C1348      C1350   1.446       .  S
C1349      N1353   1.157       .  T
C1350      N1354   1.158       .  T
C1351      N1356   1.157       .  T
C1352      N2955   1.157       .  T
N1355      C2952   1.157       .  T
C1361      C1362   1.406       .  A
C1361      C1366   1.398       .  A
C1361      C1375   1.444       .  S
C1362      C1367   1.490       .  S
C1362      C1363   1.403       .  A
C1363      C1364   1.408       .  A
C1363      H1382   1.085       .  S
C1364      C1365   1.421       .  A
C1364      C1376   1.441       .  S
C1365      C1366   1.412       .  A
C1366      H1381   1.084       .  S
C1367      C1368   1.402       .  A
C1367      C1372   1.409       .  A
C1368      C1369   1.406       .  A
C1368      H1383   1.085       .  S
C1369      C1370   1.416       .  A
C1369      C1373   1.442       .  S
C1370      C1371   1.406       .  A
C1371      C1372   1.402       .  A
C1371      H1384   1.085       .  S
C1372      C1374   1.443       .  S
C1373      N1377   1.157       .  T
C1374      N1378   1.157       .  T
C1375      N1380   1.157       .  T
C1376      N1379   1.156       .  T
C1385      C1386   1.414       .  A
C1385      C1390   1.408       .  A
C1385      C1399   1.444       .  S
C1386      C1391   1.495       .  S
C1386      C1387   1.402       .  A
C1387      C1388   1.400       .  A
C1387      H1406   1.085       .  S
C1388      C1389   1.415       .  A
C1388      C1400   1.444       .  S
C1389      C1390   1.407       .  A
C1390      H1405   1.085       .  S
C1391      C1392   1.404       .  A
C1391      C1396   1.415       .  A
C1392      C1393   1.404       .  A
C1392      H1407   1.085       .  S
C1393      C1394   1.413       .  A
C1393      C1397   1.444       .  S
C1394      C1395   1.400       .  A
C1395      C1396   1.405       .  A
C1395      H1408   1.085       .  S
C1396      C1398   1.443       .  S
C1397      N1401   1.157       .  T
C1398      N1402   1.157       .  T
C1399      N1404   1.157       .  T
C1400      N1403   1.157       .  T
C1409      C1410   1.408       .  A
C1409      C1414   1.396       .  A
C1409      C1423   1.444       .  S
C1410      C1415   1.471       .  S
C1410      C1411   1.401       .  A
C1411      C1412   1.397       .  A
C1411      H1430   1.085       .  S
C1412      C1413   1.409       .  A
C1412      C1424   1.443       .  S
C1413      C1414   1.401       .  A
C1414      H1429   1.085       .  S
C1415      C1416   1.397       .  A
C1415      C1420   1.405       .  A
C1416      C1417   1.396       .  A
C1416      H1431   1.085       .  S
C1417      C1418   1.420       .  A
C1417      C1421   1.445       .  S
C1418      C1419   1.410       .  A
C1419      C1420   1.396       .  A
C1419      H1432   1.084       .  S
C1420      C1422   1.444       .  S
C1421      N1425   1.157       .  T
C1422      N1426   1.157       .  T
C1423      N1428   1.157       .  T
C1424      N1427   1.157       .  T
C1433      C1434   1.408       .  A
C1433      C1438   1.396       .  A
C1433      C1447   1.443       .  S
C1434      C1439   1.471       .  S
C1434      C1435   1.400       .  A
C1435      C1436   1.396       .  A
C1435      H1454   1.085       .  S
C1436      C1437   1.408       .  A
C1436      C1448   1.443       .  S
C1437      C1438   1.401       .  A
C1438      H1453   1.085       .  S
C1439      C1440   1.398       .  A
C1439      C1444   1.406       .  A
C1440      C1441   1.397       .  A
C1440      H1455   1.085       .  S
C1441      C1442   1.416       .  A
C1441      C1445   1.444       .  S
C1442      C1443   1.407       .  A
C1443      C1444   1.397       .  A
C1443      H1456   1.085       .  S
C1444      C1446   1.445       .  S
C1445      N1449   1.157       .  T
C1446      N1450   1.157       .  T
C1447      N1452   1.157       .  T
C1448      N1451   1.157       .  T
C1457      C1458   1.413       .  A
C1457      C1462   1.400       .  A
C1457      C1471   1.444       .  S
C1458      C1463   1.483       .  S
C1458      C1459   1.404       .  A
C1459      C1460   1.399       .  A
C1459      H1478   1.085       .  S
C1460      C1461   1.408       .  A
C1460      C1472   1.443       .  S
C1461      C1462   1.402       .  A
C1462      H1477   1.085       .  S
C1463      C1464   1.401       .  A
C1463      C1468   1.409       .  A
C1464      C1465   1.400       .  A
C1464      H1479   1.085       .  S
C1465      C1466   1.421       .  A
C1465      C1469   1.446       .  S
C1466      C1467   1.408       .  A
C1467      C1468   1.398       .  A
C1467      H1480   1.084       .  S
C1468      C1470   1.444       .  S
C1469      N1473   1.158       .  T
C1470      N1474   1.157       .  T
C1471      N1476   1.157       .  T
C1472      N1475   1.157       .  T
C1481      C1482   1.409       .  A
C1481      C1486   1.397       .  A
C1481      C1495   1.445       .  S
C1482      C1487   1.479       .  S
C1482      C1483   1.400       .  A
C1483      C1484   1.401       .  A
C1483      H1502   1.085       .  S
C1484      C1485   1.417       .  A
C1484      C1496   1.444       .  S
C1485      C1486   1.407       .  A
C1486      H1501   1.085       .  S
C1487      C1488   1.402       .  A
C1487      C1492   1.411       .  A
C1488      C1489   1.400       .  A
C1488      H1503   1.085       .  S
C1489      C1490   1.410       .  A
C1489      C1493   1.444       .  S
C1490      C1491   1.400       .  A
C1491      C1492   1.397       .  A
C1491      H1504   1.085       .  S
C1492      C1494   1.444       .  S
C1493      N1497   1.157       .  T
C1494      N1498   1.157       .  T
C1495      N1500   1.157       .  T
C1496      N1499   1.157       .  T
C1505      C1506   1.413       .  A
C1505      C1510   1.407       .  A
C1505      C1519   1.443       .  S
C1506      C1511   1.492       .  S
C1506      C1507   1.401       .  A
C1507      C1508   1.398       .  A
C1507      H1526   1.085       .  S
C1508      C1509   1.415       .  A
C1508      C1520   1.443       .  S
C1509      C1510   1.406       .  A
C1510      H1525   1.085       .  S
C1511      C1512   1.401       .  A
C1511      C1516   1.410       .  A
C1512      C1513   1.404       .  A
C1512      H1527   1.085       .  S
C1513      C1514   1.425       .  A
C1513      C1517   1.445       .  S
C1514      C1515   1.411       .  A
C1515      C1516   1.401       .  A
C1515      H1528   1.078       .  S
C1516      C1518   1.445       .  S
C1517      N1521   1.158       .  T
C1518      N1522   1.157       .  T
C1519      N1524   1.157       .  T
C1520      N1523   1.156       .  T
C1529      C1530   1.410       .  A
C1529      C1534   1.401       .  A
C1529      C1543   1.444       .  S
C1530      C1535   1.487       .  S
C1530      C1531   1.404       .  A
C1531      C1532   1.405       .  A
C1531      H1550   1.085       .  S
C1532      C1533   1.414       .  A
C1532      C1544   1.444       .  S
C1533      C1534   1.405       .  A
C1534      H1549   1.085       .  S
C1535      C1536   1.401       .  A
C1535      C1540   1.413       .  A
C1536      C1537   1.399       .  A
C1536      H1551   1.085       .  S
C1537      C1538   1.412       .  A
C1537      C1541   1.443       .  S
C1538      C1539   1.403       .  A
C1539      C1540   1.404       .  A
C1539      H1552   1.084       .  S
C1540      C1542   1.443       .  S
C1541      N1545   1.157       .  T
C1542      N1546   1.157       .  T
C1543      N1548   1.157       .  T
C1544      N1547   1.157       .  T
C1553      C1554   1.411       .  A
C1553      C1558   1.401       .  A
C1553      C1567   1.444       .  S
C1554      C1559   1.497       .  S
C1554      C1555   1.409       .  A
C1555      C1556   1.409       .  A
C1555      H1574   1.084       .  S
C1556      C1557   1.412       .  A
C1556      C1568   1.443       .  S
C1557      C1558   1.407       .  A
C1558      H1573   1.085       .  S
C1559      C1560   1.406       .  A
C1559      C1564   1.409       .  A
C1560      C1561   1.408       .  A
C1560      H1575   1.085       .  S
C1561      C1562   1.416       .  A
C1561      C1565   1.443       .  S
C1562      C1563   1.409       .  A
C1563      C1564   1.403       .  A
C1563      H1576   1.084       .  S
C1564      C1566   1.444       .  S
C1565      N1569   1.157   1_565  T
C1566      N1570   1.157       .  T
C1567      N1572   1.157       .  T
C1568      N1571   1.157       .  T
C1577      C1578   1.410       .  A
C1577      C1582   1.404       .  A
C1577      C1591   1.445       .  S
C1578      C1583   1.489       .  S
C1578      C1579   1.403       .  A
C1579      C1580   1.403       .  A
C1579      H1598   1.085       .  S
C1580      C1581   1.413       .  A
C1580      C1592   1.443       .  S
C1581      C1582   1.409       .  A
C1582      H1597   1.083       .  S
C1583      C1584   1.401       .  A
C1583      C1588   1.411       .  A
C1584      C1585   1.401       .  A
C1584      H1599   1.085       .  S
C1585      C1586   1.412       .  A
C1585      C1589   1.442       .  S
C1586      C1587   1.406       .  A
C1587      C1588   1.405       .  A
C1587      H1600   1.084       .  S
C1588      C1590   1.444       .  S
C1589      N1593   1.157       .  T
C1590      N1594   1.157       .  T
C1591      N1596   1.157       .  T
C1592      N1595   1.157       .  T
O1601     Zr1637   2.478       .  S
O1601      C1612   1.301       .  A
O1602     Zr1636   2.467       .  S
O1602      C1613   1.298       .  A
O1603     Zr1609   2.430       .  S
O1603      C1614   1.289       .  A
O1604     Zr1609   2.423       .  S
O1604      C1615   1.288       .  A
O1605     Zr1639   2.425       .  S
O1605      C1615   1.290       .  A
O1606     Zr1638   2.417       .  S
O1606      C1614   1.288       .  A
O1607     Zr1609   2.429       .  S
O1607      C1613   1.291       .  A
O1608     Zr1609   2.425       .  S
O1608      C1612   1.290       .  A
Zr1609     O1610   2.335       .  S
Zr1609     O1611   2.337       .  S
Zr1609     O1619   2.341       .  S
Zr1609     O1617   2.329       .  S
O1610     Zr1636   2.344       .  S
O1610     Zr1639   2.336       .  S
O1611     Zr1637   2.351       .  S
O1611     Zr1638   2.335       .  S
C1612      C2381   1.491       .  S
C1613      C2165   1.491       .  S
C1614      C2218   1.488       .  S
C1615      C2242   1.480       .  S
H1616      O1617   0.965       .  S
O1617     Zr1636   2.352       .  S
O1617     Zr1638   2.344       .  S
H1618      O1619   0.966       .  S
O1619     Zr1637   2.348       .  S
O1619     Zr1639   2.337       .  S
O1620     Zr1636   2.463       .  S
O1620      C1643   1.297       .  A
O1621     Zr1637   2.481       .  S
O1621      C1644   1.301       .  A
O1622     Zr1638   2.425       .  S
O1622      C1645   1.291       .  A
O1623     Zr1639   2.426       .  S
O1623      C1646   1.291       .  A
O1624     Zr1639   2.430       .  S
O1624      C1647   1.291       .  A
O1625     Zr1638   2.441       .  S
O1625      C1648   1.292       .  A
O1626     Zr1640   2.436       .  S
O1626      C1649   1.291       .  A
O1627     Zr1640   2.427       .  S
O1627      C1650   1.290       .  A
O1628     Zr1638   2.414       .  S
O1628      C1649   1.288       .  A
O1629     Zr1639   2.438       .  S
O1629      C1650   1.292       .  A
O1630     Zr1636   2.472       .  S
O1630      C1645   1.300       .  A
O1631     Zr1637   2.457       .  S
O1631      C1648   1.296       .  A
O1632     Zr1637   2.463       .  S
O1632      C1647   1.297       .  A
O1633     Zr1636   2.475       .  S
O1633      C1646   1.299       .  A
O1634     Zr1640   2.438       .  S
O1634      C1643   1.293       .  A
O1635     Zr1640   2.428       .  S
O1635      C1644   1.291       .  A
Zr1636     O1642   2.359       .  S
Zr1636     O1654   2.348       .  S
Zr1637     O1641   2.347       .  S
Zr1637     O1652   2.353       .  S
Zr1638     O1642   2.344       .  S
Zr1638     O1652   2.337       .  S
Zr1639     O1641   2.331       .  S
Zr1639     O1654   2.336       .  S
Zr1640     O1641   2.339       .  S
Zr1640     O1642   2.337       .  S
Zr1640     O1654   2.338       .  S
Zr1640     O1652   2.341       .  S
C1643      C2189   1.488       .  S
C1644      C2357   1.491       .  S
C1645      C2117   1.493       .  S
C1646      C2146   1.506       .  S
C1647      C2309   1.483       .  S
C1648      C2333   1.485       .  S
C1649      C2285   1.477       .  S
C1650      C2266   1.485       .  S
H1651      O1652   0.964       .  S
H1653      O1654   0.966       .  S
N1655      H1687   1.037       .  S
N1655      C2460   1.352   1_545  A
N1655      C1659   1.353       .  A
N1656      C1664   1.348       .  A
N1657      H1688   1.037       .  S
N1657      C2462   1.350       .  A
N1657      C1661   1.350   1_565  A
N1658      C1666   1.350       .  A
C1659      C1667   1.388       .  A
C1659      C1675   1.415       .  A
C1660      N2455   1.350       .  A
C1660      C1676   1.409       .  A
C1660      C1668   1.387       .  A
C1661      C1669   1.388       .  A
C1661      C1678   1.410       .  A
C1662      N2457   1.350       .  A
C1662      C1677   1.409       .  A
C1662      C1670   1.387       .  A
C1663      C1675   1.408       .  A
C1663      C1671   1.387   1_655  A
C1664      C1678   1.408       .  A
C1664      C1672   1.387       .  A
C1665      C1673   1.386       .  A
C1665      C1676   1.409       .  A
C1666      C1674   1.386       .  A
C1666      C1677   1.410       .  A
C1667      C2468   1.372   1_545  A
C1667      H1679   1.082       .  S
C1668      C2467   1.373       .  A
C1668      H1680   1.082       .  S
C1669      C2470   1.370   1_545  A
C1669      H1681   1.082       .  S
C1670      C2469   1.374       .  A
C1670      H1682   1.083       .  S
C1671      H1683   1.082   1_455  S
C1672      H1684   1.083       .  S
C1673      H1685   1.082       .  S
C1674      H1686   1.082       .  S
C1675      C2213   1.478       .  S
C1676      C2290   1.476       .  S
C1677      C2261   1.481       .  S
C1678      C2237   1.474       .  S
O1689     Zr1725   2.481       .  S
O1689      C1700   1.301       .  A
O1690     Zr1724   2.466       .  S
O1690      C1701   1.297       .  A
O1691      C1702   1.287       .  A
O1692     Zr1697   2.421       .  S
O1692      C1703   1.288       .  A
O1693     Zr1727   2.428   1_554  S
O1693      C1703   1.290       .  A
O1694     Zr1726   2.423       .  S
O1694      C1702   1.290       .  A
O1695     Zr1697   2.430       .  S
O1695      C1701   1.290       .  A
O1696     Zr1697   2.424   1_556  S
O1696      C1700   1.290       .  A
Zr1697     O1698   2.335       .  S
Zr1697     O1707   2.339   1_554  S
O1698     Zr1724   2.354       .  S
O1698     Zr1727   2.342   1_554  S
O1699     Zr1726   2.331   1_556  S
C1700      C2093   1.494       .  S
C1701      C1877   1.483       .  S
C1702      C1925   1.478       .  S
C1703      C1949   1.468       .  S
H1704      O1705   0.964       .  S
O1705     Zr1726   2.339       .  S
H1706      O1707   0.965       .  S
O1707     Zr1725   2.359       .  S
O1707     Zr1727   2.340       .  S
O1708     Zr2524   2.458   1_545  S
O1708      C1731   1.295       .  A
O1709     Zr2525   2.486   1_545  S
O1709      C1732   1.301       .  A
O1710     Zr1726   2.432       .  S
O1710      C1733   1.290       .  A
O1711     Zr1727   2.429   1_554  S
O1711      C1734   1.290       .  A
O1712     Zr1727   2.444       .  S
O1712      C2535   1.294       .  A
O1713     Zr1726   2.447   1_556  S
O1713      C2536   1.295       .  A
O1714      C1737   1.290       .  A
O1715     Zr1728   2.441       .  S
O1715      C1738   1.293       .  A
O1716     Zr2526   2.434   1_545  S
O1716      C1737   1.291       .  A
O1717     Zr2527   2.423   1_545  S
O1717      C1738   1.289       .  A
O1718      C1733   1.294       .  A
O1719      C1736   1.298       .  A
O1720     Zr2525   2.464       .  S
O1720      C1735   1.297       .  A
O1721     Zr1724   2.463       .  S
O1721      C1734   1.298       .  A
O1722     Zr1728   2.418   1_554  S
O1722      C1731   1.289       .  A
O1723     Zr1728   2.411       .  S
O1723      C1732   1.288       .  A
Zr1724     O2508   2.464       .  S
Zr1724     O2542   2.351       .  S
Zr1725     O2509   2.478       .  S
Zr1725     O2520   2.462       .  S
Zr1725     O2529   2.355       .  S
Zr1726     O2516   2.430       .  S
Zr1726     O2530   2.334       .  S
Zr1726     O2540   2.336   1_554  S
Zr1727     O2517   2.429       .  S
Zr1727     O2529   2.335       .  S
Zr1727     O2542   2.343   1_556  S
Zr1728     O1729   2.334       .  S
Zr1728     O1742   2.326   1_556  S
O1729     Zr2525   2.353   1_545  S
O1729     Zr2527   2.337   1_545  S
O1730     Zr2526   2.332   1_545  S
C1731      C1901   1.490       .  S
C1732      C2069   1.490       .  S
C1733      C1829   1.471       .  S
C1734      C1853   1.501       .  S
C1735      O2512   1.294       .  A
C1735      C2021   1.490       .  S
C1736      O2513   1.294       .  A
C1736      C2050   1.509       .  S
C1737      C1997   1.482       .  S
C1738      C1973   1.485       .  S
H1739      O1740   0.965       .  S
O1740     Zr2526   2.337   1_546  S
H1741      O1742   0.964       .  S
O1742     Zr2524   2.349   1_545  S
O1742     Zr2527   2.343   1_544  S
N1743      H1775   1.040       .  S
N1743      C1748   1.351       .  A
N1743      C1747   1.349       .  A
N1744      C1751   1.348       .  A
N1744      C1752   1.349       .  A
N1745      H1776   1.040       .  S
N1745      C1750   1.349   1_554  A
N1745      C1749   1.350   1_554  A
N1746      C1753   1.347       .  A
N1746      C1754   1.347       .  A
C1747      C1755   1.387   1_554  A
C1747      C1763   1.409       .  A
C1748      C1764   1.410       .  A
C1748      C1756   1.387   1_554  A
C1749      C1757   1.387       .  A
C1749      C1766   1.409   1_556  A
C1750      C1765   1.409   1_556  A
C1750      C1758   1.387       .  A
C1751      C1763   1.409       .  A
C1751      C1759   1.386       .  A
C1752      C1766   1.408       .  A
C1752      C1760   1.385       .  A
C1753      C1761   1.387       .  A
C1753      C1764   1.407       .  A
C1754      C1762   1.386       .  A
C1754      C1765   1.406       .  A
C1755      C1756   1.375       .  A
C1755      H1767   1.082       .  S
C1756      H1768   1.082       .  S
C1757      C1758   1.376       .  A
C1757      H1769   1.082       .  S
C1758      H1770   1.083       .  S
C1759      C1760   1.374       .  A
C1759      H1771   1.082       .  S
C1760      H1772   1.082       .  S
C1761      C1762   1.374       .  A
C1761      H1773   1.083       .  S
C1762      H1774   1.082       .  S
C1763      C2002   1.480       .  S
C1764      C1930   1.480       .  S
C1765      C1954   1.477       .  S
C1766      C1978   1.481       .  S
C1777      C1778   1.536       .  S
C1777      C1781   1.533       .  S
C1777      C2314   1.546       .  S
C1778      H1785   1.086       .  S
C1779      C1780   1.548   1_455  S
C1779      C1906   1.497       .  S
C1780      C1784   1.537       .  S
C1780      C1782   1.539   1_655  S
C1780      H1786   1.109       .  S
C1781      H1787   1.087       .  S
C1782      C1882   1.483       .  S
C1783      H1788   1.082       .  S
C1783      C1784   1.369   1_455  D
C1784      C2338   1.486       .  S
C1789      C1790   1.537       .  S
C1789      C1795   1.549       .  S
C1789      C2593   1.539       .  S
C1789      C1834   1.547       .  S
C1790      H1797   1.086       .  S
C1790      C1791   1.368       .  D
C1791      C1792   1.547       .  S
C1791      C2362   1.501       .  S
C1792      C1796   1.534       .  S
C1792      C2594   1.542       .  S
C1792      H1798   1.110       .  S
C1793      C2589   1.541       .  S
C1793      H1799   1.086       .  S
C1793      C1794   1.369       .  D
C1794      C2592   1.541       .  S
C1794      C2386   1.491       .  S
C1795      H1800   1.080       .  S
C1795      C1796   1.365       .  D
C1796      C1858   1.481       .  S
C1801      C1802   1.545       .  S
C1801      C1805   1.538       .  S
C1801      C2141   1.547       .  S
C1802      H1809   1.080       .  S
C1803      C1804   1.552   1_455  S
C1803      C2098   1.504       .  S
C1804      C1808   1.549       .  S
C1804      C1806   1.546   1_655  S
C1804      H1810   1.110       .  S
C1805      H1811   1.086       .  S
C1806      C2074   1.489       .  S
C1807      H1812   1.086       .  S
C1807      C1808   1.367   1_455  D
C1808      C2122   1.497       .  S
C1813      C2614   1.545       .  S
C1813      C1819   1.544       .  S
C1813      C1817   1.538       .  S
C1813      C2045   1.557       .  S
C1814      C2613   1.547   1_545  S
C1814      H1821   1.080       .  S
C1814      C1815   1.364       .  D
C1815      C2616   1.542   1_545  S
C1815      C2170   1.493       .  S
C1816      C2615   1.543       .  S
C1816      C1820   1.545       .  S
C1816      C1818   1.548       .  S
C1816      H1822   1.108       .  S
C1817      H1823   1.086       .  S
C1817      C1818   1.365       .  D
C1818      C2194   1.491       .  S
C1819      H1824   1.085       .  S
C1819      C1820   1.376       .  D
C1820      C2026   1.508       .  S
C1825      C2626   1.411       .  A
C1825      C1830   1.401       .  A
C1825      C1839   1.443       .  S
C1826      C1831   1.485       .  S
C1826      C2625   1.411       .  A
C1826      C1827   1.403       .  A
C1827      C1828   1.402       .  A
C1827      H1846   1.085       .  S
C1828      C1829   1.410       .  A
C1828      C1840   1.444       .  S
C1829      C2630   1.401       .  A
C1830      C2629   1.402   1_545  A
C1830      H1845   1.085       .  S
C1831      C1832   1.397       .  A
C1831      C2636   1.405       .  A
C1832      C1833   1.403       .  A
C1832      H1847   1.085       .  S
C1833      C1834   1.425       .  A
C1833      C1837   1.443       .  S
C1834      C2635   1.416       .  A
C1835      C2634   1.416       .  A
C1835      C1836   1.403       .  A
C1835      H1848   1.075       .  S
C1836      C2631   1.405       .  A
C1836      C1838   1.446       .  S
C1837      N1841   1.157       .  T
C1838      N1842   1.157       .  T
C1839      N1844   1.157       .  T
C1840      N1843   1.157       .  T
C1849      C1850   1.410       .  A
C1849      C1854   1.405       .  A
C1849      C1863   1.443       .  S
C1850      C1855   1.489       .  S
C1850      C2651   1.398       .  A
C1851      C2650   1.399       .  A
C1851      C1852   1.399       .  A
C1851      H1870   1.085       .  S
C1852      C2653   1.425       .  A
C1852      C1864   1.446       .  S
C1853      C2652   1.426       .  A
C1853      C1854   1.410       .  A
C1854      H1869   1.084       .  S
C1855      C2656   1.405       .  A
C1855      C1860   1.412       .  A
C1856      C2655   1.406       .  A
C1856      C1857   1.402       .  A
C1856      H1871   1.085       .  S
C1857      C2658   1.410       .  A
C1857      C1861   1.445       .  S
C1858      C2657   1.411       .  A
C1858      C1859   1.401       .  A
C1859      C1860   1.402       .  A
C1859      H1872   1.085       .  S
C1860      C1862   1.443       .  S
C1861      N1865   1.157       .  T
C1862      N1866   1.157       .  T
C1863      N1868   1.157       .  T
C1864      N1867   1.158       .  T
C1873      C1878   1.407       .  A
C1873      C1887   1.444       .  S
C1874      C1879   1.488       .  S
C1874      C1875   1.400       .  A
C1875      C1876   1.400       .  A
C1875      H1894   1.085       .  S
C1876      C1877   1.413       .  A
C1876      C1888   1.443       .  S
C1878      H1893   1.084       .  S
C1879      C1884   1.413   1_655  A
C1880      C1881   1.402       .  A
C1880      H1895   1.085       .  S
C1881      C1885   1.444       .  S
C1882      C1883   1.401       .  A
C1883      C1884   1.404       .  A
C1883      H1896   1.085       .  S
C1884      C1886   1.444       .  S
C1885      N1889   1.157       .  T
C1886      N1890   1.157       .  T
C1887      N1892   1.157       .  T
C1888      N1891   1.157       .  T
C1897      C1898   1.405       .  A
C1897      C1902   1.396       .  A
C1897      C1911   1.444       .  S
C1898      C1903   1.483       .  S
C1899      C1900   1.405       .  A
C1899      H1918   1.085       .  S
C1900      C1912   1.444       .  S
C1901      C1902   1.410       .  A
C1902      H1917   1.085       .  S
C1903      C1904   1.401       .  A
C1904      C1905   1.403       .  A
C1904      H1919   1.085       .  S
C1905      C1906   1.417   1_655  A
C1905      C1909   1.441       .  S
C1907      C1908   1.400       .  A
C1907      H1920   1.084       .  S
C1908      C1910   1.444       .  S
C1909      N1913   1.157       .  T
C1910      N1914   1.157       .  T
C1911      N1916   1.157       .  T
C1912      N1915   1.157       .  T
C1921      C1922   1.405       .  A
C1921      C1926   1.393       .  A
C1921      C1935   1.444       .  S
C1922      C1927   1.469       .  S
C1922      C1923   1.399       .  A
C1923      C1924   1.395   1_554  A
C1923      H1942   1.085   1_554  S
C1924      C1925   1.418   1_556  A
C1924      C1936   1.445       .  S
C1925      C1926   1.408       .  A
C1926      H1941   1.085       .  S
C1927      C1928   1.400       .  A
C1927      C1932   1.408   1_554  A
C1928      C1929   1.395       .  A
C1928      H1943   1.085       .  S
C1929      C1930   1.411       .  A
C1929      C1933   1.444       .  S
C1930      C1931   1.403   1_554  A
C1931      C1932   1.396       .  A
C1931      H1944   1.085       .  S
C1932      C1934   1.445       .  S
C1933      N1937   1.157       .  T
C1934      N1938   1.157       .  T
C1935      N1940   1.157       .  T
C1936      N1939   1.158       .  T
C1945      C1946   1.407   1_556  A
C1945      C1950   1.397       .  A
C1945      C1959   1.444       .  S
C1946      C1951   1.468       .  S
C1946      C1947   1.398       .  A
C1947      C1948   1.394       .  A
C1947      H1966   1.085       .  S
C1948      C1949   1.411       .  A
C1948      C1960   1.442       .  S
C1949      C1950   1.404   1_554  A
C1950      H1965   1.085       .  S
C1951      C1952   1.400       .  A
C1951      C1956   1.407   1_554  A
C1952      C1953   1.396       .  A
C1952      H1967   1.085       .  S
C1953      C1954   1.411       .  A
C1953      C1957   1.444       .  S
C1954      C1955   1.401   1_554  A
C1955      C1956   1.395       .  A
C1955      H1968   1.085       .  S
C1956      C1958   1.444       .  S
C1957      N1961   1.157       .  T
C1958      N1962   1.157       .  T
C1959      N1964   1.157       .  T
C1960      N1963   1.156       .  T
C1969      C1970   1.411       .  A
C1969      C1974   1.398       .  A
C1969      C1983   1.444       .  S
C1970      C1975   1.486       .  S
C1970      C1971   1.403   1_554  A
C1971      C1972   1.398       .  A
C1971      H1990   1.085       .  S
C1972      C1973   1.417       .  A
C1972      C1984   1.445       .  S
C1973      C1974   1.407   1_556  A
C1974      H1989   1.085       .  S
C1975      C1976   1.404   1_554  A
C1975      C1980   1.414       .  A
C1976      C1977   1.396       .  A
C1976      H1991   1.085       .  S
C1977      C1978   1.407   1_556  A
C1977      C1981   1.443       .  S
C1978      C1979   1.402       .  A
C1979      C1980   1.400       .  A
C1979      H1992   1.085       .  S
C1980      C1982   1.445       .  S
C1981      N1985   1.157       .  T
C1982      N1986   1.157       .  T
C1983      N1988   1.157       .  T
C1984      N1987   1.158       .  T
C1993      C1994   1.406   1_556  A
C1993      C1998   1.399       .  A
C1993      C2007   1.444       .  S
C1994      C1999   1.473       .  S
C1994      C1995   1.397       .  A
C1995      C1996   1.397       .  A
C1995      H2014   1.085       .  S
C1996      C1997   1.417       .  A
C1996      C2008   1.444       .  S
C1997      C1998   1.409   1_554  A
C1998      H2013   1.085       .  S
C1999      C2000   1.401       .  A
C1999      C2004   1.409   1_554  A
C2000      C2001   1.398       .  A
C2000      H2015   1.085       .  S
C2001      C2002   1.410       .  A
C2001      C2005   1.444       .  S
C2002      C2003   1.401   1_554  A
C2003      C2004   1.397       .  A
C2003      H2016   1.085       .  S
C2004      C2006   1.443       .  S
C2005      N2009   1.157       .  T
C2006      N2010   1.157       .  T
C2007      N2012   1.157       .  T
C2008      N2011   1.157       .  T
C2017      C2018   1.412   1_545  A
C2017      C2022   1.410       .  A
C2017      C2031   1.443       .  S
C2018      C2023   1.491       .  S
C2018      C2819   1.400       .  A
C2019      C2818   1.400       .  A
C2019      C2020   1.399       .  A
C2019      H2038   1.085       .  S
C2020      C2821   1.414       .  A
C2020      C2032   1.443       .  S
C2021      C2820   1.415       .  A
C2021      C2022   1.408   1_565  A
C2022      H2037   1.084       .  S
C2023      C2824   1.400       .  A
C2023      C2028   1.408   1_565  A
C2024      C2823   1.401       .  A
C2024      C2025   1.408       .  A
C2024      H2039   1.085       .  S
C2025      C2026   1.422       .  A
C2025      C2029   1.442       .  S
C2026      C2827   1.410       .  A
C2027      C2826   1.410   1_545  A
C2027      C2028   1.402       .  A
C2027      H2040   1.084       .  S
C2028      C2030   1.444       .  S
C2029      N2033   1.157       .  T
C2030      N2034   1.157       .  T
C2031      N2036   1.157       .  T
C2032      N2035   1.157       .  T
C2041      C2042   1.411   1_545  A
C2041      C2046   1.407       .  A
C2041      C2055   1.445       .  S
C2042      C2047   1.506       .  S
C2042      C2843   1.403       .  A
C2043      C2842   1.403       .  A
C2043      C2044   1.407       .  A
C2043      H2062   1.085       .  S
C2044      C2045   1.424       .  A
C2044      C2056   1.442       .  S
C2045      C2846   1.418       .  A
C2046      C2845   1.417   1_545  A
C2046      H2061   1.076       .  S
C2047      C2848   1.407   1_565  A
C2047      C2052   1.413       .  A
C2048      C2847   1.407       .  A
C2048      C2049   1.409       .  A
C2048      H2063   1.085       .  S
C2049      C2850   1.421       .  A
C2049      C2053   1.444       .  S
C2050      C2849   1.421   1_565  A
C2050      C2051   1.412       .  A
C2051      C2052   1.404       .  A
C2051      H2064   1.084       .  S
C2052      C2054   1.444       .  S
C2053      N2057   1.157       .  T
C2054      N2058   1.157       .  T
C2055      N2060   1.157       .  T
C2056      N2059   1.156       .  T
C2065      C2070   1.408       .  A
C2065      C2079   1.442       .  S
C2066      C2071   1.499       .  S
C2066      C2067   1.402       .  A
C2067      C2068   1.401       .  A
C2067      H2086   1.085       .  S
C2068      C2069   1.418       .  A
C2068      C2080   1.445       .  S
C2070      H2085   1.085       .  S
C2071      C2076   1.416   1_655  A
C2072      C2073   1.407       .  A
C2072      H2087   1.084       .  S
C2073      C2077   1.443       .  S
C2074      C2075   1.401       .  A
C2075      C2076   1.405       .  A
C2075      H2088   1.085       .  S
C2076      C2078   1.443       .  S
C2077      N2081   1.157       .  T
C2078      N2082   1.157       .  T
C2079      N2084   1.157       .  T
C2080      N2083   1.157       .  T
C2089      C2090   1.410       .  A
C2089      C2094   1.404       .  A
C2089      C2103   1.443       .  S
C2090      C2095   1.497       .  S
C2091      C2092   1.407       .  A
C2091      H2110   1.085       .  S
C2092      C2104   1.442       .  S
C2093      C2094   1.409       .  A
C2094      H2109   1.085       .  S
C2095      C2096   1.405       .  A
C2096      C2097   1.408       .  A
C2096      H2111   1.085       .  S
C2097      C2098   1.415   1_655  A
C2097      C2101   1.442       .  S
C2099      C2100   1.404       .  A
C2099      H2112   1.084       .  S
C2100      C2102   1.445       .  S
C2101      N2105   1.157       .  T
C2102      N2106   1.157       .  T
C2103      N2108   1.157       .  T
C2104      N2107   1.156       .  T
C2113      C2114   1.409       .  A
C2113      C2118   1.401       .  A
C2113      C2127   1.444       .  S
C2114      C2119   1.492       .  S
C2114      C2115   1.406       .  A
C2115      C2116   1.409       .  A
C2115      H2134   1.084       .  S
C2116      C2117   1.414       .  A
C2116      C2128   1.444       .  S
C2117      C2118   1.409       .  A
C2118      H2133   1.085       .  S
C2119      C2120   1.402       .  A
C2119      C2124   1.411       .  A
C2120      C2121   1.404       .  A
C2120      H2135   1.085       .  S
C2121      C2122   1.417       .  A
C2121      C2125   1.444       .  S
C2122      C2123   1.406       .  A
C2123      C2124   1.408       .  A
C2123      H2136   1.084       .  S
C2124      C2126   1.443       .  S
C2125      N2129   1.157       .  T
C2126      N2130   1.157       .  T
C2127      N2132   1.157       .  T
C2128      N2131   1.157       .  T
C2137      C2138   1.409       .  A
C2137      C2142   1.404       .  A
C2137      C2151   1.445       .  S
C2138      C2143   1.497       .  S
C2138      C2139   1.403       .  A
C2139      C2140   1.401       .  A
C2139      H2158   1.085       .  S
C2140      C2141   1.422       .  A
C2140      C2152   1.444       .  S
C2141      C2142   1.416       .  A
C2142      H2157   1.076       .  S
C2143      C2144   1.406       .  A
C2143      C2148   1.409       .  A
C2144      C2145   1.408       .  A
C2144      H2159   1.084       .  S
C2145      C2146   1.420       .  A
C2145      C2149   1.443       .  S
C2146      C2147   1.413       .  A
C2147      C2148   1.399       .  A
C2147      H2160   1.084       .  S
C2148      C2150   1.446       .  S
C2149      N2153   1.157       .  T
C2150      N2154   1.157       .  T
C2151      N2156   1.157       .  T
C2161      C2162   1.406       .  A
C2161      C2166   1.402       .  A
C2161      C2175   1.444       .  S
C2162      C2167   1.488       .  S
C2162      C2163   1.403       .  A
C2163      C2164   1.405       .  A
C2163      H2182   1.085       .  S
C2164      C2165   1.415       .  A
C2164      C2176   1.441       .  S
C2165      C2166   1.409       .  A
C2166      H2181   1.085       .  S
C2167      C2168   1.401       .  A
C2167      C2172   1.409       .  A
C2168      C2169   1.405       .  A
C2168      H2183   1.085       .  S
C2169      C2170   1.415       .  A
C2169      C2173   1.441       .  S
C2170      C2171   1.406       .  A
C2171      C2172   1.404       .  A
C2171      H2184   1.085       .  S
C2172      C2174   1.444       .  S
C2173      N2177   1.157       .  T
C2174      N2178   1.157       .  T
C2175      N2180   1.157       .  T
C2176      N2179   1.156       .  T
C2185      C2186   1.416       .  A
C2185      C2190   1.410       .  A
C2185      C2199   1.444       .  S
C2186      C2191   1.499       .  S
C2186      C2187   1.403       .  A
C2187      C2188   1.401       .  A
C2187      H2206   1.085       .  S
C2188      C2189   1.414       .  A
C2188      C2200   1.444       .  S
C2189      C2190   1.406       .  A
C2190      H2205   1.085       .  S
C2191      C2192   1.404       .  A
C2191      C2196   1.416       .  A
C2192      C2193   1.405       .  A
C2192      H2207   1.085       .  S
C2193      C2194   1.414       .  A
C2193      C2197   1.443       .  S
C2194      C2195   1.401       .  A
C2195      C2196   1.407       .  A
C2195      H2208   1.085       .  S
C2196      C2198   1.443       .  S
C2197      N2201   1.157       .  T
C2198      N2202   1.157       .  T
C2199      N2204   1.157       .  T
C2200      N2203   1.157       .  T
C2209      C2210   1.408       .  A
C2209      C2214   1.396       .  A
C2209      C2223   1.444       .  S
C2210      C2215   1.470       .  S
C2210      C2211   1.401       .  A
C2211      C2212   1.397       .  A
C2211      H2230   1.085       .  S
C2212      C2213   1.408       .  A
C2212      C2224   1.443       .  S
C2213      C2214   1.402       .  A
C2214      H2229   1.085       .  S
C2215      C2216   1.397       .  A
C2215      C2220   1.404       .  A
C2216      C2217   1.397       .  A
C2216      H2231   1.085       .  S
C2217      C2218   1.420       .  A
C2217      C2221   1.445       .  S
C2218      C2219   1.412       .  A
C2219      C2220   1.397       .  A
C2219      H2232   1.084       .  S
C2220      C2222   1.444       .  S
C2221      N2225   1.158       .  T
C2222      N2226   1.157       .  T
C2223      N2228   1.157       .  T
C2224      N2227   1.157       .  T
C2233      C2234   1.409       .  A
C2233      C2238   1.396       .  A
C2233      C2247   1.444       .  S
C2234      C2239   1.469       .  S
C2234      C2235   1.400       .  A
C2235      C2236   1.394       .  A
C2235      H2254   1.085       .  S
C2236      C2237   1.408       .  A
C2236      C2248   1.444       .  S
C2237      C2238   1.400       .  A
C2238      H2253   1.085       .  S
C2239      C2240   1.398       .  A
C2239      C2244   1.405       .  A
C2240      C2241   1.398       .  A
C2240      H2255   1.085       .  S
C2241      C2242   1.418       .  A
C2241      C2245   1.445       .  S
C2242      C2243   1.407       .  A
C2243      C2244   1.394       .  A
C2243      H2256   1.085       .  S
C2244      C2246   1.445       .  S
C2245      N2249   1.158       .  T
C2246      N2250   1.157       .  T
C2247      N2252   1.157       .  T
C2248      N2251   1.157       .  T
C2257      C2258   1.408       .  A
C2257      C2262   1.397       .  A
C2257      C2271   1.444       .  S
C2258      C2263   1.476       .  S
C2258      C2259   1.403       .  A
C2259      C2260   1.401       .  A
C2259      H2278   1.084       .  S
C2260      C2261   1.409       .  A
C2260      C2272   1.444       .  S
C2261      C2262   1.401       .  A
C2262      H2277   1.085       .  S
C2263      C2264   1.397       .  A
C2263      C2268   1.407       .  A
C2264      C2265   1.398       .  A
C2264      H2279   1.085       .  S
C2265      C2266   1.417       .  A
C2265      C2269   1.441       .  S
C2266      C2267   1.408       .  A
C2267      C2268   1.399       .  A
C2267      H2280   1.084       .  S
C2268      C2270   1.443       .  S
C2269      N2273   1.156       .  T
C2270      N2274   1.157       .  T
C2271      N2276   1.157       .  T
C2272      N2275   1.157       .  T
C2281      C2282   1.408       .  A
C2281      C2286   1.395       .  A
C2281      C2295   1.446       .  S
C2282      C2287   1.474       .  S
C2282      C2283   1.400       .  A
C2283      C2284   1.398       .  A
C2283      H2302   1.085       .  S
C2284      C2285   1.415       .  A
C2284      C2296   1.445       .  S
C2285      C2286   1.406       .  A
C2286      H2301   1.085       .  S
C2287      C2288   1.401       .  A
C2287      C2292   1.410       .  A
C2288      C2289   1.396       .  A
C2288      H2303   1.085       .  S
C2289      C2290   1.409       .  A
C2289      C2293   1.443       .  S
C2290      C2291   1.400       .  A
C2291      C2292   1.396       .  A
C2291      H2304   1.085       .  S
C2292      C2294   1.444       .  S
C2293      N2297   1.157       .  T
C2294      N2298   1.157       .  T
C2295      N2300   1.157       .  T
C2296      N2299   1.157       .  T
C2305      C2306   1.414       .  A
C2305      C2310   1.406       .  A
C2305      C2319   1.443       .  S
C2306      C2311   1.495       .  S
C2306      C2307   1.403       .  A
C2307      C2308   1.401       .  A
C2307      H2326   1.085       .  S
C2308      C2309   1.414       .  A
C2308      C2320   1.444       .  S
C2309      C2310   1.404       .  A
C2310      H2325   1.085       .  S
C2311      C2312   1.401       .  A
C2311      C2316   1.410       .  A
C2312      C2313   1.406       .  A
C2312      H2327   1.085       .  S
C2313      C2314   1.426       .  A
C2313      C2317   1.445       .  S
C2314      C2315   1.411       .  A
C2315      C2316   1.402       .  A
C2315      H2328   1.078       .  S
C2316      C2318   1.444       .  S
C2317      N2321   1.158       .  T
C2318      N2322   1.157       .  T
C2319      N2324   1.157       .  T
C2320      N2323   1.157       .  T
C2329      C2330   1.412       .  A
C2329      C2334   1.403       .  A
C2329      C2343   1.445       .  S
C2330      C2335   1.489       .  S
C2330      C2331   1.404       .  A
C2331      C2332   1.404       .  A
C2331      H2350   1.085       .  S
C2332      C2333   1.412       .  A
C2332      C2344   1.444       .  S
C2333      C2334   1.406       .  A
C2334      H2349   1.085       .  S
C2335      C2336   1.402       .  A
C2335      C2340   1.414       .  A
C2336      C2337   1.399       .  A
C2336      H2351   1.085       .  S
C2337      C2338   1.411       .  A
C2337      C2341   1.443       .  S
C2338      C2339   1.403       .  A
C2339      C2340   1.404       .  A
C2339      H2352   1.084       .  S
C2340      C2342   1.443       .  S
C2341      N2345   1.157       .  T
C2342      N2346   1.157       .  T
C2343      N2348   1.157       .  T
C2344      N2347   1.157       .  T
C2353      C2354   1.411       .  A
C2353      C2358   1.403       .  A
C2353      C2367   1.444       .  S
C2354      C2359   1.499       .  S
C2354      C2355   1.409       .  A
C2355      C2356   1.409       .  A
C2355      H2374   1.084       .  S
C2356      C2357   1.412       .  A
C2356      C2368   1.443       .  S
C2357      C2358   1.407       .  A
C2358      H2373   1.085       .  S
C2359      C2360   1.408       .  A
C2359      C2364   1.409       .  A
C2360      C2361   1.409       .  A
C2360      H2375   1.085       .  S
C2361      C2362   1.415       .  A
C2361      C2365   1.444       .  S
C2362      C2363   1.409       .  A
C2363      C2364   1.403       .  A
C2363      H2376   1.084       .  S
C2364      C2366   1.444       .  S
C2365      N2369   1.157       .  T
C2366      N2370   1.157       .  T
C2367      N2372   1.157       .  T
C2368      N2371   1.157       .  T
C2377      C2378   1.410       .  A
C2377      C2382   1.406       .  A
C2377      C2391   1.445       .  S
C2378      C2383   1.490       .  S
C2378      C2379   1.403       .  A
C2379      C2380   1.403       .  A
C2379      H2398   1.085       .  S
C2380      C2381   1.413       .  A
C2380      C2392   1.443       .  S
C2381      C2382   1.410       .  A
C2382      H2397   1.084       .  S
C2383      C2384   1.401       .  A
C2383      C2388   1.411       .  A
C2384      C2385   1.401       .  A
C2384      H2399   1.085       .  S
C2385      C2386   1.412       .  A
C2385      C2389   1.441       .  S
C2386      C2387   1.406       .  A
C2387      C2388   1.405       .  A
C2387      H2400   1.084       .  S
C2388      C2390   1.443       .  S
C2389      N2393   1.156       .  T
C2390      N2394   1.157       .  T
C2391      N2396   1.157       .  T
C2392      N2395   1.157       .  T
O2401     Zr2437   2.473       .  S
O2401      C2412   1.299       .  A
O2402     Zr2436   2.463       .  S
O2402      C2413   1.297       .  A
O2403     Zr2409   2.428       .  S
O2403      C2414   1.289       .  A
O2404     Zr2409   2.431       .  S
O2404      C2415   1.290       .  A
O2405     Zr2439   2.424       .  S
O2405      C2415   1.289       .  A
O2406     Zr2438   2.421       .  S
O2406      C2414   1.289       .  A
O2407     Zr2409   2.430       .  S
O2407      C2413   1.292       .  A
O2408     Zr2409   2.426       .  S
O2408      C2412   1.290       .  A
Zr2409     O2410   2.332       .  S
Zr2409     O2411   2.338       .  S
Zr2409     O2419   2.338       .  S
Zr2409     O2417   2.332       .  S
O2410     Zr2436   2.347       .  S
O2410     Zr2439   2.335       .  S
O2411     Zr2437   2.352       .  S
O2411     Zr2438   2.336       .  S
C2412      C3181   1.488       .  S
C2413      C2965   1.502       .  S
C2414      C3018   1.486       .  S
C2415      C3042   1.478       .  S
H2416      O2417   0.965       .  S
O2417     Zr2436   2.352       .  S
O2417     Zr2438   2.344       .  S
H2418      O2419   0.966       .  S
O2419     Zr2437   2.346       .  S
O2419     Zr2439   2.331       .  S
O2420     Zr2436   2.461       .  S
O2420      C2443   1.297       .  A
O2421     Zr2437   2.480       .  S
O2421      C2444   1.300       .  A
O2422     Zr2438   2.429       .  S
O2422      C2445   1.291       .  A
O2423     Zr2439   2.411       .  S
O2423      C2446   1.288       .  A
O2424     Zr2439   2.429       .  S
O2424      C2447   1.290       .  A
O2425     Zr2438   2.439       .  S
O2425      C2448   1.293       .  A
O2426     Zr2440   2.443       .  S
O2426      C2449   1.293       .  A
O2427     Zr2440   2.439       .  S
O2427      C2450   1.293       .  A
O2428     Zr2438   2.423       .  S
O2428      C2449   1.289       .  A
O2429     Zr2439   2.427       .  S
O2429      C2450   1.289       .  A
O2430     Zr2436   2.482       .  S
O2430      C2445   1.301       .  A
O2431     Zr2437   2.450       .  S
O2431      C2448   1.295       .  A
O2432     Zr2437   2.462       .  S
O2432      C2447   1.297       .  A
O2433     Zr2436   2.482       .  S
O2433      C2446   1.300       .  A
O2434     Zr2440   2.437       .  S
O2434      C2443   1.293       .  A
O2435     Zr2440   2.423       .  S
O2435      C2444   1.290       .  A
Zr2436     O2442   2.358       .  S
Zr2436     O2454   2.351       .  S
Zr2437     O2441   2.344       .  S
Zr2437     O2452   2.350       .  S
Zr2438     O2442   2.345       .  S
Zr2438     O2452   2.338       .  S
Zr2439     O2441   2.330       .  S
Zr2439     O2454   2.340       .  S
Zr2440     O2441   2.339       .  S
Zr2440     O2442   2.339       .  S
Zr2440     O2454   2.339       .  S
Zr2440     O2452   2.340       .  S
C2443      C2989   1.487       .  S
C2444      C3157   1.489       .  S
C2445      C2917   1.496       .  S
C2446      C2946   1.504       .  S
C2447      C3109   1.484       .  S
C2448      C3133   1.484       .  S
C2449      C3085   1.484       .  S
C2450      C3066   1.491       .  S
H2451      O2452   0.964       .  S
H2453      O2454   0.966       .  S
N2455      H2487   1.039       .  S
N2455      C2459   1.351       .  A
N2456      C2464   1.348       .  A
N2457      H2488   1.039       .  S
N2457      C2461   1.350       .  A
N2458      C2466   1.352       .  A
C2459      C2467   1.387       .  A
C2459      C2475   1.410       .  A
C2460      C2476   1.413       .  A
C2460      C2468   1.387       .  A
C2461      C2469   1.387       .  A
C2461      C2478   1.408       .  A
C2462      C2477   1.410       .  A
C2462      C2470   1.387       .  A
C2463      C2475   1.407       .  A
C2463      C2471   1.386   1_655  A
C2464      C2478   1.408       .  A
C2464      C2472   1.386       .  A
C2465      C2473   1.387       .  A
C2465      C2476   1.414       .  A
C2466      C2474   1.385       .  A
C2466      C2477   1.411       .  A
C2467      H2479   1.082       .  S
C2468      H2480   1.082       .  S
C2469      H2481   1.082       .  S
C2470      H2482   1.082       .  S
C2471      H2483   1.082   1_455  S
C2472      H2484   1.082       .  S
C2473      H2485   1.082       .  S
C2474      H2486   1.082       .  S
C2475      C3013   1.478       .  S
C2476      C3090   1.482       .  S
C2477      C3061   1.483       .  S
C2478      C3037   1.476       .  S
O2489     Zr2525   2.480       .  S
O2489      C2500   1.301       .  A
O2490     Zr2524   2.458       .  S
O2490      C2501   1.295       .  A
O2491      C2502   1.287       .  A
O2492     Zr2497   2.422       .  S
O2492      C2503   1.288       .  A
O2493     Zr2527   2.424   1_554  S
O2493      C2503   1.289       .  A
O2494     Zr2526   2.428       .  S
O2494      C2502   1.291       .  A
O2495     Zr2497   2.432       .  S
O2495      C2501   1.291       .  A
O2496     Zr2497   2.425   1_556  S
O2496      C2500   1.290       .  A
Zr2497     O2498   2.334       .  S
Zr2497     O2507   2.338   1_554  S
O2498     Zr2524   2.352       .  S
O2498     Zr2527   2.339   1_554  S
O2499     Zr2526   2.333   1_556  S
C2500      C2893   1.493       .  S
C2501      C2677   1.481       .  S
C2502      C2725   1.478       .  S
C2503      C2749   1.467       .  S
H2504      O2505   0.964       .  S
O2505     Zr2526   2.339       .  S
H2506      O2507   0.965       .  S
O2507     Zr2525   2.361       .  S
O2507     Zr2527   2.340       .  S
O2508      C2531   1.297       .  A
O2509      C2532   1.300       .  A
O2510     Zr2526   2.431       .  S
O2510      C2533   1.290       .  A
O2511     Zr2527   2.430   1_554  S
O2511      C2534   1.290   1_565  A
O2512     Zr2527   2.442       .  S
O2513     Zr2526   2.443   1_556  S
O2514      C2537   1.289       .  A
O2515     Zr2528   2.442       .  S
O2515      C2538   1.293       .  A
O2516      C2537   1.290       .  A
O2517      C2538   1.290       .  A
O2518      C2533   1.294       .  A
O2519      C2536   1.297       .  A
O2520      C2535   1.297       .  A
O2521     Zr2524   2.461   1_545  S
O2521      C2534   1.298       .  A
O2522     Zr2528   2.426   1_554  S
O2522      C2531   1.291       .  A
O2523     Zr2528   2.416       .  S
O2523      C2532   1.289       .  A
Zr2528     O2529   2.335       .  S
Zr2528     O2542   2.327   1_556  S
C2531      C2701   1.494       .  S
C2532      C2869   1.486       .  S
C2533      C2629   1.471       .  S
C2534      C2653   1.500       .  S
C2535      C2821   1.490       .  S
C2536      C2850   1.510       .  S
C2537      C2797   1.479       .  S
C2538      C2773   1.489       .  S
H2539      O2540   0.965       .  S
H2541      O2542   0.964       .  S
N2543      H2575   1.041       .  S
N2543      C2548   1.350       .  A
N2543      C2547   1.349       .  A
N2544      C2551   1.348       .  A
N2544      C2552   1.349       .  A
N2545      H2576   1.040       .  S
N2545      C2550   1.349   1_554  A
N2545      C2549   1.350   1_554  A
N2546      C2553   1.346       .  A
N2546      C2554   1.347       .  A
C2547      C2555   1.387   1_554  A
C2547      C2563   1.408       .  A
C2548      C2564   1.409       .  A
C2548      C2556   1.387   1_554  A
C2549      C2557   1.387       .  A
C2549      C2566   1.409   1_556  A
C2550      C2565   1.408   1_556  A
C2550      C2558   1.387       .  A
C2551      C2563   1.408       .  A
C2551      C2559   1.386       .  A
C2552      C2566   1.408       .  A
C2552      C2560   1.386       .  A
C2553      C2561   1.387       .  A
C2553      C2564   1.406       .  A
C2554      C2562   1.386       .  A
C2554      C2565   1.405       .  A
C2555      C2556   1.375       .  A
C2555      H2567   1.082       .  S
C2556      H2568   1.082       .  S
C2557      C2558   1.376       .  A
C2557      H2569   1.082       .  S
C2558      H2570   1.083       .  S
C2559      C2560   1.375       .  A
C2559      H2571   1.082       .  S
C2560      H2572   1.082       .  S
C2561      C2562   1.375       .  A
C2561      H2573   1.083       .  S
C2562      H2574   1.082       .  S
C2563      C2802   1.478       .  S
C2564      C2730   1.478       .  S
C2565      C2754   1.476       .  S
C2566      C2778   1.480       .  S
C2577      C2578   1.537       .  S
C2577      C2581   1.531       .  S
C2577      C3114   1.543       .  S
C2578      H2585   1.086       .  S
C2579      C2580   1.550   1_455  S
C2579      C2706   1.502       .  S
C2580      C2584   1.537       .  S
C2580      C2582   1.539   1_655  S
C2580      H2586   1.109       .  S
C2581      H2587   1.087       .  S
C2582      C2682   1.481       .  S
C2583      H2588   1.082       .  S
C2583      C2584   1.368   1_455  D
C2584      C3138   1.484       .  S
C2589      C2590   1.538   1_545  S
C2589      C2595   1.548       .  S
C2589      C2634   1.548       .  S
C2590      H2597   1.086       .  S
C2590      C2591   1.369       .  D
C2591      C2592   1.547   1_565  S
C2591      C3162   1.501       .  S
C2592      C2596   1.533       .  S
C2592      H2598   1.110       .  S
C2593      H2599   1.086       .  S
C2593      C2594   1.368       .  D
C2594      C3186   1.490       .  S
C2595      H2600   1.080       .  S
C2595      C2596   1.364       .  D
C2596      C2658   1.480       .  S
C2601      C2602   1.545       .  S
C2601      C2605   1.538       .  S
C2601      C2941   1.547       .  S
C2602      H2609   1.080       .  S
C2603      C2604   1.552   1_455  S
C2603      C2898   1.504       .  S
C2604      C2608   1.547       .  S
C2604      C2606   1.546   1_655  S
C2604      H2610   1.110       .  S
C2605      H2611   1.086       .  S
C2606      C2874   1.488       .  S
C2607      H2612   1.086       .  S
C2607      C2608   1.368   1_455  D
C2608      C2922   1.497       .  S
C2613      C2619   1.545       .  S
C2613      C2617   1.536       .  S
C2613      C2845   1.556       .  S
C2614      H2621   1.080       .  S
C2614      C2615   1.363       .  D
C2615      C2970   1.493       .  S
C2616      C2620   1.545       .  S
C2616      C2618   1.547       .  S
C2616      H2622   1.107       .  S
C2617      H2623   1.086       .  S
C2617      C2618   1.363       .  D
C2618      C2994   1.486       .  S
C2619      H2624   1.085       .  S
C2619      C2620   1.377       .  D
C2620      C2826   1.510       .  S
C2625      C2630   1.401       .  A
C2625      C2639   1.443       .  S
C2626      C2631   1.484       .  S
C2626      C2627   1.403   1_545  A
C2627      C2628   1.402       .  A
C2627      H2646   1.085       .  S
C2628      C2629   1.409       .  A
C2628      C2640   1.444       .  S
C2630      H2645   1.085       .  S
C2631      C2632   1.397   1_545  A
C2632      C2633   1.403       .  A
C2632      H2647   1.085       .  S
C2633      C2634   1.425   1_565  A
C2633      C2637   1.443       .  S
C2635      C2636   1.403       .  A
C2635      H2648   1.076       .  S
C2636      C2638   1.445       .  S
C2637      N2641   1.157       .  T
C2638      N2642   1.157       .  T
C2639      N2644   1.157       .  T
C2640      N2643   1.157       .  T
C2649      C2650   1.410       .  A
C2649      C2654   1.405       .  A
C2649      C2663   1.443       .  S
C2650      C2655   1.489       .  S
C2651      C2652   1.399       .  A
C2651      H2670   1.085       .  S
C2652      C2664   1.446       .  S
C2653      C2654   1.410       .  A
C2654      H2669   1.084   1_545  S
C2655      C2660   1.413   1_545  A
C2656      C2657   1.402       .  A
C2656      H2671   1.085       .  S
C2657      C2661   1.444       .  S
C2658      C2659   1.400   1_545  A
C2659      C2660   1.402       .  A
C2659      H2672   1.085       .  S
C2660      C2662   1.443       .  S
C2661      N2665   1.157       .  T
C2662      N2666   1.157       .  T
C2663      N2668   1.157   1_545  T
C2664      N2667   1.158       .  T
C2673      C2678   1.405       .  A
C2673      C2687   1.444       .  S
C2674      C2679   1.487       .  S
C2674      C2675   1.401       .  A
C2675      C2676   1.400       .  A
C2675      H2694   1.085       .  S
C2676      C2677   1.412       .  A
C2676      C2688   1.443       .  S
C2678      H2693   1.084       .  S
C2679      C2684   1.413   1_655  A
C2680      C2681   1.402       .  A
C2680      H2695   1.085       .  S
C2681      C2685   1.444       .  S
C2682      C2683   1.400       .  A
C2683      C2684   1.403       .  A
C2683      H2696   1.085       .  S
C2684      C2686   1.444       .  S
C2685      N2689   1.157       .  T
C2686      N2690   1.157       .  T
C2687      N2692   1.157       .  T
C2688      N2691   1.157       .  T
C2697      C2698   1.407       .  A
C2697      C2702   1.399       .  A
C2697      C2711   1.444       .  S
C2698      C2703   1.489       .  S
C2699      C2700   1.406       .  A
C2699      H2718   1.085       .  S
C2700      C2712   1.444       .  S
C2701      C2702   1.410       .  A
C2702      H2717   1.085       .  S
C2703      C2704   1.402       .  A
C2704      C2705   1.405       .  A
C2704      H2719   1.085       .  S
C2705      C2706   1.418   1_655  A
C2705      C2709   1.441       .  S
C2707      C2708   1.402       .  A
C2707      H2720   1.084       .  S
C2708      C2710   1.444       .  S
C2709      N2713   1.157       .  T
C2710      N2714   1.157       .  T
C2711      N2716   1.157       .  T
C2712      N2715   1.157       .  T
C2721      C2722   1.405       .  A
C2721      C2726   1.393       .  A
C2721      C2735   1.444       .  S
C2722      C2727   1.469       .  S
C2722      C2723   1.399       .  A
C2723      C2724   1.395   1_554  A
C2723      H2742   1.085   1_554  S
C2724      C2725   1.419   1_556  A
C2724      C2736   1.446       .  S
C2725      C2726   1.407       .  A
C2726      H2741   1.085       .  S
C2727      C2728   1.400       .  A
C2727      C2732   1.409   1_554  A
C2728      C2729   1.395       .  A
C2728      H2743   1.085       .  S
C2729      C2730   1.410       .  A
C2729      C2733   1.444       .  S
C2730      C2731   1.402   1_554  A
C2731      C2732   1.395       .  A
C2731      H2744   1.085       .  S
C2732      C2734   1.444       .  S
C2733      N2737   1.157       .  T
C2734      N2738   1.157       .  T
C2735      N2740   1.157       .  T
C2736      N2739   1.158       .  T
C2745      C2746   1.407   1_556  A
C2745      C2750   1.396       .  A
C2745      C2759   1.444       .  S
C2746      C2751   1.468       .  S
C2746      C2747   1.398       .  A
C2747      C2748   1.394       .  A
C2747      H2766   1.085       .  S
C2748      C2749   1.412       .  A
C2748      C2760   1.443       .  S
C2749      C2750   1.403   1_554  A
C2750      H2765   1.085       .  S
C2751      C2752   1.399       .  A
C2751      C2756   1.408   1_554  A
C2752      C2753   1.395       .  A
C2752      H2767   1.085       .  S
C2753      C2754   1.410       .  A
C2753      C2757   1.444       .  S
C2754      C2755   1.401   1_554  A
C2755      C2756   1.396       .  A
C2755      H2768   1.085       .  S
C2756      C2758   1.444       .  S
C2757      N2761   1.157       .  T
C2758      N2762   1.157       .  T
C2759      N2764   1.157       .  T
C2760      N2763   1.156       .  T
C2769      C2770   1.410       .  A
C2769      C2774   1.400       .  A
C2769      C2783   1.444       .  S
C2770      C2775   1.486       .  S
C2770      C2771   1.402   1_554  A
C2771      C2772   1.398       .  A
C2771      H2790   1.085       .  S
C2772      C2773   1.417       .  A
C2772      C2784   1.445       .  S
C2773      C2774   1.409   1_556  A
C2774      H2789   1.085       .  S
C2775      C2776   1.404   1_554  A
C2775      C2780   1.414       .  A
C2776      C2777   1.396       .  A
C2776      H2791   1.085       .  S
C2777      C2778   1.406   1_556  A
C2777      C2781   1.443       .  S
C2778      C2779   1.402       .  A
C2779      C2780   1.401       .  A
C2779      H2792   1.085       .  S
C2780      C2782   1.444       .  S
C2781      N2785   1.157       .  T
C2782      N2786   1.157       .  T
C2783      N2788   1.157       .  T
C2784      N2787   1.158       .  T
C2793      C2794   1.406   1_556  A
C2793      C2798   1.398       .  A
C2793      C2807   1.444       .  S
C2794      C2799   1.470       .  S
C2794      C2795   1.397       .  A
C2795      C2796   1.395       .  A
C2795      H2814   1.085       .  S
C2796      C2797   1.416       .  A
C2796      C2808   1.444       .  S
C2797      C2798   1.408   1_554  A
C2798      H2813   1.085       .  S
C2799      C2800   1.400       .  A
C2799      C2804   1.408   1_554  A
C2800      C2801   1.397       .  A
C2800      H2815   1.085       .  S
C2801      C2802   1.410       .  A
C2801      C2805   1.444       .  S
C2802      C2803   1.401   1_554  A
C2803      C2804   1.396       .  A
C2803      H2816   1.085       .  S
C2804      C2806   1.443       .  S
C2805      N2809   1.157       .  T
C2806      N2810   1.157       .  T
C2807      N2812   1.157       .  T
C2808      N2811   1.157       .  T
C2817      C2818   1.413       .  A
C2817      C2822   1.410       .  A
C2817      C2831   1.443       .  S
C2818      C2823   1.491       .  S
C2819      C2820   1.399       .  A
C2819      H2838   1.085       .  S
C2820      C2832   1.444       .  S
C2821      C2822   1.408       .  A
C2822      H2837   1.085       .  S
C2823      C2828   1.408       .  A
C2824      C2825   1.408       .  A
C2824      H2839   1.085       .  S
C2825      C2826   1.423       .  A
C2825      C2829   1.442       .  S
C2827      C2828   1.402       .  A
C2827      H2840   1.084       .  S
C2828      C2830   1.444       .  S
C2829      N2833   1.157       .  T
C2830      N2834   1.157       .  T
C2831      N2836   1.157       .  T
C2832      N2835   1.157       .  T
C2841      C2842   1.411       .  A
C2841      C2846   1.407       .  A
C2841      C2855   1.445       .  S
C2842      C2847   1.506       .  S
C2843      C2844   1.406       .  A
C2843      H2862   1.085       .  S
C2844      C2845   1.424       .  A
C2844      C2856   1.443       .  S
C2846      H2861   1.076       .  S
C2847      C2852   1.412       .  A
C2848      C2849   1.409       .  A
C2848      H2863   1.084       .  S
C2849      C2853   1.444       .  S
C2850      C2851   1.412       .  A
C2851      C2852   1.405       .  A
C2851      H2864   1.084       .  S
C2852      C2854   1.444       .  S
C2853      N2857   1.157       .  T
C2854      N2858   1.157       .  T
C2855      N2860   1.157       .  T
C2856      N2859   1.157       .  T
C2865      C2870   1.408       .  A
C2865      C2879   1.443       .  S
C2866      C2871   1.497       .  S
C2866      C2867   1.402       .  A
C2867      C2868   1.401       .  A
C2867      H2886   1.085       .  S
C2868      C2869   1.415       .  A
C2868      C2880   1.444       .  S
C2870      H2885   1.085       .  S
C2871      C2876   1.416   1_655  A
C2872      C2873   1.405       .  A
C2872      H2887   1.085       .  S
C2873      C2877   1.443       .  S
C2874      C2875   1.401       .  A
C2875      C2876   1.406       .  A
C2875      H2888   1.085       .  S
C2876      C2878   1.443       .  S
C2877      N2881   1.157       .  T
C2878      N2882   1.157       .  T
C2879      N2884   1.157       .  T
C2880      N2883   1.157       .  T
C2889      C2890   1.409       .  A
C2889      C2894   1.403       .  A
C2889      C2903   1.444       .  S
C2890      C2895   1.496       .  S
C2891      C2892   1.407       .  A
C2891      H2910   1.085       .  S
C2892      C2904   1.442       .  S
C2893      C2894   1.409       .  A
C2894      H2909   1.085       .  S
C2895      C2896   1.404       .  A
C2896      C2897   1.407       .  A
C2896      H2911   1.085       .  S
C2897      C2898   1.415   1_655  A
C2897      C2901   1.441       .  S
C2899      C2900   1.405       .  A
C2899      H2912   1.084       .  S
C2900      C2902   1.445       .  S
C2901      N2905   1.157       .  T
C2902      N2906   1.157       .  T
C2903      N2908   1.157       .  T
C2904      N2907   1.157       .  T
C2913      C2914   1.410       .  A
C2913      C2918   1.404       .  A
C2913      C2927   1.445       .  S
C2914      C2919   1.495       .  S
C2914      C2915   1.406       .  A
C2915      C2916   1.409       .  A
C2915      H2934   1.084       .  S
C2916      C2917   1.414       .  A
C2916      C2928   1.443       .  S
C2917      C2918   1.410       .  A
C2918      H2933   1.085       .  S
C2919      C2920   1.403       .  A
C2919      C2924   1.411       .  A
C2920      C2921   1.405       .  A
C2920      H2935   1.085       .  S
C2921      C2922   1.416       .  A
C2921      C2925   1.445       .  S
C2922      C2923   1.405       .  A
C2923      C2924   1.408       .  A
C2923      H2936   1.084       .  S
C2924      C2926   1.443       .  S
C2925      N2929   1.157       .  T
C2926      N2930   1.157       .  T
C2927      N2932   1.157       .  T
C2928      N2931   1.157       .  T
C2937      C2938   1.408       .  A
C2937      C2942   1.403       .  A
C2937      C2951   1.445       .  S
C2938      C2943   1.494       .  S
C2938      C2939   1.401       .  A
C2939      C2940   1.401       .  A
C2939      H2958   1.085       .  S
C2940      C2941   1.423       .  A
C2940      C2952   1.443       .  S
C2941      C2942   1.416       .  A
C2942      H2957   1.077       .  S
C2943      C2944   1.405       .  A
C2943      C2948   1.409       .  A
C2944      C2945   1.406       .  A
C2944      H2959   1.085       .  S
C2945      C2946   1.418       .  A
C2945      C2949   1.441       .  S
C2946      C2947   1.415       .  A
C2947      C2948   1.400       .  A
C2947      H2960   1.084       .  S
C2948      C2950   1.446       .  S
C2949      N2953   1.157       .  T
C2950      N2954   1.158       .  T
C2951      N2956   1.157       .  T
C2961      C2962   1.406       .  A
C2961      C2966   1.398       .  A
C2961      C2975   1.444       .  S
C2962      C2967   1.489       .  S
C2962      C2963   1.403       .  A
C2963      C2964   1.408       .  A
C2963      H2982   1.085       .  S
C2964      C2965   1.421       .  A
C2964      C2976   1.441       .  S
C2965      C2966   1.412       .  A
C2966      H2981   1.084       .  S
C2967      C2968   1.402       .  A
C2967      C2972   1.409       .  A
C2968      C2969   1.406       .  A
C2968      H2983   1.085       .  S
C2969      C2970   1.415       .  A
C2969      C2973   1.442       .  S
C2970      C2971   1.405       .  A
C2971      C2972   1.401       .  A
C2971      H2984   1.085       .  S
C2972      C2974   1.443       .  S
C2973      N2977   1.157       .  T
C2974      N2978   1.157       .  T
C2975      N2980   1.157       .  T
C2976      N2979   1.156       .  T
C2985      C2986   1.415       .  A
C2985      C2990   1.408       .  A
C2985      C2999   1.444       .  S
C2986      C2991   1.495       .  S
C2986      C2987   1.402       .  A
C2987      C2988   1.400       .  A
C2987      H3006   1.085       .  S
C2988      C2989   1.414       .  A
C2988      C3000   1.444       .  S
C2989      C2990   1.407       .  A
C2990      H3005   1.085       .  S
C2991      C2992   1.404       .  A
C2991      C2996   1.416       .  A
C2992      C2993   1.404       .  A
C2992      H3007   1.085       .  S
C2993      C2994   1.413       .  A
C2993      C2997   1.444       .  S
C2994      C2995   1.400       .  A
C2995      C2996   1.405       .  A
C2995      H3008   1.085       .  S
C2996      C2998   1.443       .  S
C2997      N3001   1.157       .  T
C2998      N3002   1.157       .  T
C2999      N3004   1.157       .  T
C3000      N3003   1.157       .  T
C3009      C3010   1.408       .  A
C3009      C3014   1.396       .  A
C3009      C3023   1.444       .  S
C3010      C3015   1.471       .  S
C3010      C3011   1.401       .  A
C3011      C3012   1.397       .  A
C3011      H3030   1.085       .  S
C3012      C3013   1.409       .  A
C3012      C3024   1.443       .  S
C3013      C3014   1.402       .  A
C3014      H3029   1.085       .  S
C3015      C3016   1.397       .  A
C3015      C3020   1.405       .  A
C3016      C3017   1.397       .  A
C3016      H3031   1.085       .  S
C3017      C3018   1.420       .  A
C3017      C3021   1.445       .  S
C3018      C3019   1.410       .  A
C3019      C3020   1.397       .  A
C3019      H3032   1.084       .  S
C3020      C3022   1.444       .  S
C3021      N3025   1.157       .  T
C3022      N3026   1.157       .  T
C3023      N3028   1.157       .  T
C3024      N3027   1.157       .  T
C3033      C3034   1.408       .  A
C3033      C3038   1.396       .  A
C3033      C3047   1.443       .  S
C3034      C3039   1.471       .  S
C3034      C3035   1.400       .  A
C3035      C3036   1.396       .  A
C3035      H3054   1.085       .  S
C3036      C3037   1.408       .  A
C3036      C3048   1.443       .  S
C3037      C3038   1.400       .  A
C3038      H3053   1.085       .  S
C3039      C3040   1.398       .  A
C3039      C3044   1.406       .  A
C3040      C3041   1.397       .  A
C3040      H3055   1.085       .  S
C3041      C3042   1.416       .  A
C3041      C3045   1.444       .  S
C3042      C3043   1.407       .  A
C3043      C3044   1.397       .  A
C3043      H3056   1.085       .  S
C3044      C3046   1.445       .  S
C3045      N3049   1.157       .  T
C3046      N3050   1.157       .  T
C3047      N3052   1.157       .  T
C3048      N3051   1.157       .  T
C3057      C3058   1.413       .  A
C3057      C3062   1.400       .  A
C3057      C3071   1.444       .  S
C3058      C3063   1.483       .  S
C3058      C3059   1.404       .  A
C3059      C3060   1.399       .  A
C3059      H3078   1.085       .  S
C3060      C3061   1.408       .  A
C3060      C3072   1.444       .  S
C3061      C3062   1.401       .  A
C3062      H3077   1.085       .  S
C3063      C3064   1.401       .  A
C3063      C3068   1.409       .  A
C3064      C3065   1.401       .  A
C3064      H3079   1.085       .  S
C3065      C3066   1.420       .  A
C3065      C3069   1.445       .  S
C3066      C3067   1.408       .  A
C3067      C3068   1.399       .  A
C3067      H3080   1.084       .  S
C3068      C3070   1.444       .  S
C3069      N3073   1.158       .  T
C3070      N3074   1.157       .  T
C3071      N3076   1.157       .  T
C3072      N3075   1.157       .  T
C3081      C3082   1.409       .  A
C3081      C3086   1.398       .  A
C3081      C3095   1.445       .  S
C3082      C3087   1.479       .  S
C3082      C3083   1.400       .  A
C3083      C3084   1.401       .  A
C3083      H3102   1.085       .  S
C3084      C3085   1.417       .  A
C3084      C3096   1.444       .  S
C3085      C3086   1.407       .  A
C3086      H3101   1.085       .  S
C3087      C3088   1.402       .  A
C3087      C3092   1.411       .  A
C3088      C3089   1.400       .  A
C3088      H3103   1.085       .  S
C3089      C3090   1.410       .  A
C3089      C3093   1.444       .  S
C3090      C3091   1.400       .  A
C3091      C3092   1.397       .  A
C3091      H3104   1.085       .  S
C3092      C3094   1.444       .  S
C3093      N3097   1.157       .  T
C3094      N3098   1.157       .  T
C3095      N3100   1.157       .  T
C3096      N3099   1.157       .  T
C3105      C3106   1.413       .  A
C3105      C3110   1.407       .  A
C3105      C3119   1.443       .  S
C3106      C3111   1.492       .  S
C3106      C3107   1.401       .  A
C3107      C3108   1.398       .  A
C3107      H3126   1.085       .  S
C3108      C3109   1.415       .  A
C3108      C3120   1.443       .  S
C3109      C3110   1.405       .  A
C3110      H3125   1.085       .  S
C3111      C3112   1.400       .  A
C3111      C3116   1.410       .  A
C3112      C3113   1.404       .  A
C3112      H3127   1.085       .  S
C3113      C3114   1.425       .  A
C3113      C3117   1.445       .  S
C3114      C3115   1.411       .  A
C3115      C3116   1.401       .  A
C3115      H3128   1.078       .  S
C3116      C3118   1.445       .  S
C3117      N3121   1.158       .  T
C3118      N3122   1.157       .  T
C3119      N3124   1.157       .  T
C3120      N3123   1.156       .  T
C3129      C3130   1.410       .  A
C3129      C3134   1.400       .  A
C3129      C3143   1.444       .  S
C3130      C3135   1.487       .  S
C3130      C3131   1.404       .  A
C3131      C3132   1.405       .  A
C3131      H3150   1.085       .  S
C3132      C3133   1.414       .  A
C3132      C3144   1.445       .  S
C3133      C3134   1.405       .  A
C3134      H3149   1.085       .  S
C3135      C3136   1.402       .  A
C3135      C3140   1.413       .  A
C3136      C3137   1.400       .  A
C3136      H3151   1.085       .  S
C3137      C3138   1.411       .  A
C3137      C3141   1.443       .  S
C3138      C3139   1.403       .  A
C3139      C3140   1.404       .  A
C3139      H3152   1.084       .  S
C3140      C3142   1.443       .  S
C3141      N3145   1.157       .  T
C3142      N3146   1.157       .  T
C3143      N3148   1.157       .  T
C3144      N3147   1.157       .  T
C3153      C3154   1.411       .  A
C3153      C3158   1.401       .  A
C3153      C3167   1.444       .  S
C3154      C3159   1.497       .  S
C3154      C3155   1.409       .  A
C3155      C3156   1.409       .  A
C3155      H3174   1.084       .  S
C3156      C3157   1.412       .  A
C3156      C3168   1.443       .  S
C3157      C3158   1.407       .  A
C3158      H3173   1.085       .  S
C3159      C3160   1.406       .  A
C3159      C3164   1.409       .  A
C3160      C3161   1.408       .  A
C3160      H3175   1.085       .  S
C3161      C3162   1.416       .  A
C3161      C3165   1.443       .  S
C3162      C3163   1.409       .  A
C3163      C3164   1.403       .  A
C3163      H3176   1.084       .  S
C3164      C3166   1.444       .  S
C3165      N3169   1.157   1_565  T
C3166      N3170   1.157       .  T
C3167      N3172   1.157       .  T
C3168      N3171   1.157       .  T
C3177      C3178   1.410       .  A
C3177      C3182   1.404       .  A
C3177      C3191   1.445       .  S
C3178      C3183   1.489       .  S
C3178      C3179   1.403       .  A
C3179      C3180   1.403       .  A
C3179      H3198   1.085       .  S
C3180      C3181   1.413       .  A
C3180      C3192   1.443       .  S
C3181      C3182   1.408       .  A
C3182      H3197   1.084       .  S
C3183      C3184   1.401       .  A
C3183      C3188   1.411       .  A
C3184      C3185   1.400       .  A
C3184      H3199   1.085       .  S
C3185      C3186   1.412       .  A
C3185      C3189   1.441       .  S
C3186      C3187   1.406       .  A
C3187      C3188   1.405       .  A
C3187      H3200   1.084       .  S
C3188      C3190   1.444       .  S
C3189      N3193   1.157       .  T
C3190      N3194   1.157       .  T
C3191      N3196   1.157       .  T
C3192      N3195   1.157       .  T
