geometry optimzed in LAMMPS
_audit_creation_date              2020-11-30 
_audit_creation_method            'lammps2cif' 
_symmetry_space_group_name_H-M    'P1' 
_symmetry_Int_Tables_number       1 
_symmetry_cell_setting            triclinic 
loop_ 
_symmetry_equiv_pos_as_xyz 
  x,y,z 
_cell_length_a                    26.452562834853623 
_cell_length_b                    26.58657966151173 
_cell_length_c                    46.813076809467645 
_cell_angle_alpha                 79.00037370652498 
_cell_angle_beta                  95.35841527728486 
_cell_angle_gamma                 106.47257741737145 
loop_ 
_atom_site_label 
_atom_site_type_symbol 
_atom_site_fract_x 
_atom_site_fract_y 
_atom_site_fract_z 
_atom_site_charge 
O1          O  0.86492551  0.96468624  0.47843220    -0.80360
O2          O  0.10426837  0.98189878  0.48831125    -0.65050
O3          O  0.96073119  0.95372812  0.00649604    -1.11650
C4          C  0.00894250  0.13987628  0.00720575     1.06530
O5          O  0.13208062  0.03030548  0.02301628    -0.78260
O6          O  0.06456810  0.05326227  0.05494867    -0.65840
Ni7        Ni  0.90525969  0.91294193  0.48449927     1.34870
C8          C  0.01900436  0.02829899  0.06408869     0.85260
O9          O  0.02646965  0.89240995  0.49844658    -0.78800
O10         O  0.93991907  0.85676665  0.48969894    -0.89070
C11         C  0.14120596  0.00512709  0.00442936     0.84840
O12         O  0.93243217  0.94167082  0.44665934    -0.67270
O13         O  0.05634386  0.13687285  0.01170094    -0.86560
C14         C  0.97870809  0.96459527  0.43803331     0.85670
C15         C  0.98704995  0.85283703  0.49523178     1.07240
H16         H  0.03747558  0.05734395  0.47543196     0.39040
O17         O  0.03496567  0.03926670  0.49543054    -1.09220
O18         O  0.97835317  0.01609111  0.04735403    -0.65870
Ni19       Ni  0.96386018  0.02644525  0.00585723     1.26350
O20         O  0.01890790  0.97507626  0.45521073    -0.66100
O21         O  0.96923070  0.10017015  0.00484740    -0.78390
C22         C  0.85485766  0.98808189  0.49765376     0.85050
O23         O  0.89133269  0.01003438  0.01453193    -0.65570
Ni24       Ni  0.09098675  0.08112283  0.01686806     1.27450
Ni25       Ni  0.03194362  0.96620465  0.49671041     1.26060
H26         H  0.95740041  0.93507763  0.02632173     0.39590
O27         O  0.86380725  0.96852311  0.22653494    -0.80360
O28         O  0.10498873  0.98122938  0.24168054    -0.65050
O29         O  0.95992829  0.95748750  0.25585212    -1.11650
C30         C  0.01026882  0.14229061  0.25820082     1.06530
O31         O  0.13435856  0.03263051  0.27522152    -0.78260
O32         O  0.06137784  0.04729775  0.30687943    -0.65840
Ni33       Ni  0.90617482  0.91859715  0.23167822     1.34870
C34         C  0.01391554  0.02736459  0.31423196     0.85260
O35         O  0.02530894  0.89409973  0.25045113    -0.78800
O36         O  0.94102669  0.86301620  0.23530765    -0.89070
C37         C  0.14192638  0.00480893  0.25762368     0.84840
O38         O  0.93660618  0.95175107  0.19504699    -0.67270
O39         O  0.05571295  0.13639112  0.26674421    -0.86560
C40         C  0.98423096  0.97155721  0.18794752     0.85670
C41         C  0.98645808  0.85680666  0.24377752     1.07240
H42         H  0.04271511  0.05999160  0.22673295     0.39040
O43         O  0.03717574  0.04161838  0.24650406    -1.09220
O44         O  0.97477613  0.02183918  0.29601423    -0.65870
Ni45       Ni  0.96484107  0.03093806  0.25421249     1.26350
O46         O  0.02306217  0.97782624  0.20631709    -0.66100
O47         O  0.97152834  0.10482320  0.25167224    -0.78390
C48         C  0.85495399  0.99390972  0.24512206     0.85050
O49         O  0.89194630  0.01726450  0.26116442    -0.65570
Ni50       Ni  0.09107547  0.08137238  0.27024323     1.27450
Ni51       Ni  0.03220589  0.96810155  0.24818852     1.26060
H52         H  0.95428128  0.93888404  0.27563420     0.39590
O53         O  0.87134569  0.47288588  0.47671546    -0.80360
O54         O  0.10665992  0.47691706  0.49089539    -0.65050
O55         O  0.96307493  0.45446822  0.00714945    -1.11650
C56         C  0.01860089  0.64067564  0.00852206     1.06530
O57         O  0.13317209  0.52149782  0.02718693    -0.78260
O58         O  0.06780124  0.55018548  0.05749664    -0.65840
Ni59       Ni  0.90721235  0.41733219  0.48374009     1.34870
C60         C  0.02127474  0.52767744  0.06575229     0.85260
O61         O  0.02471465  0.38954536  0.49850588    -0.78800
O62         O  0.93718521  0.35797656  0.48959144    -0.89070
C63         C  0.14312191  0.49805797  0.00796097     0.84840
O64         O  0.93785396  0.44450797  0.44658122    -0.67270
O65         O  0.06531047  0.63531952  0.01381096    -0.86560
C66         C  0.98453958  0.46798852  0.43865751     0.85670
C67         C  0.98344301  0.35185363  0.49505017     1.07240
H68         H  0.04474037  0.55642021  0.47801691     0.39040
O69         O  0.04056508  0.53746289  0.49780134    -1.09220
O70         O  0.98127616  0.51713023  0.04839558    -0.65870
Ni71       Ni  0.96952543  0.52778157  0.00672954     1.26350
O72         O  0.02348514  0.47697512  0.45669522    -0.66100
O73         O  0.97807029  0.60189331  0.00581074    -0.78390
C74         C  0.86100219  0.49657808  0.99568613     0.85050
O75         O  0.89700547  0.51448547  0.01386856    -0.65570
Ni76       Ni  0.09671418  0.57654038  0.02003348     1.27450
Ni77       Ni  0.03415670  0.46396285  0.49821020     1.26060
H78         H  0.95832503  0.43535760  0.02688450     0.39590
O79         O  0.86503475  0.46839120  0.22686816    -0.80360
O80         O  0.10546014  0.47858650  0.24169280    -0.65050
O81         O  0.96078934  0.45762436  0.25620055    -1.11650
C82         C  0.01412912  0.64430254  0.25546204     1.06530
O83         O  0.13538279  0.53067773  0.27473442    -0.78260
O84         O  0.06400787  0.55191314  0.30514759    -0.65840
Ni85       Ni  0.90627811  0.41777241  0.23289852     1.34870
C86         C  0.01718229  0.53012098  0.31327617     0.85260
O87         O  0.02474026  0.39210571  0.25253715    -0.78800
O88         O  0.94023862  0.36151033  0.23749306    -0.89070
C89         C  0.14293329  0.50277138  0.25713234     0.84840
O90         O  0.93631295  0.44952634  0.19611150    -0.67270
O91         O  0.06000175  0.63839515  0.26291137    -0.86560
C92         C  0.98391042  0.46764082  0.18884279     0.85670
C93         C  0.98536957  0.35489339  0.24626310     1.07240
H94         H  0.04356395  0.55788963  0.22527811     0.39040
O95         O  0.03863021  0.54080827  0.24536314    -1.09220
O96         O  0.97778558  0.52277663  0.29528549    -0.65870
Ni97       Ni  0.96671948  0.53161725  0.25356324     1.26350
O98         O  0.02297725  0.47297043  0.20702233    -0.66100
O99         O  0.97446248  0.60618077  0.25056623    -0.78390
C100        C  0.85664368  0.49469395  0.24502957     0.85050
O101        O  0.89386685  0.51920546  0.26057737    -0.65570
Ni102      Ni  0.09374075  0.58164780  0.26807649     1.27450
Ni103      Ni  0.03280620  0.46661320  0.24862672     1.26060
H104        H  0.95518483  0.43984947  0.27613059     0.39590
O105        O  0.36498201  0.96974523  0.47697707    -0.80360
O106        O  0.60261596  0.97515698  0.49147420    -0.65050
O107        O  0.45859559  0.95421609  0.00696515    -1.11650
C108        C  0.51480252  0.13871990  0.01058297     1.06530
O109        O  0.63032308  0.01973340  0.02771177    -0.78260
O110        O  0.56050145  0.03960413  0.05900919    -0.65840
Ni111      Ni  0.40302265  0.91619798  0.48350839     1.34870
C112        C  0.51293881  0.02193475  0.06640209     0.85260
O113        O  0.52065747  0.88873528  0.49978892    -0.78800
O114        O  0.43415293  0.85780227  0.48883630    -0.89070
C115        C  0.63953895  0.99644136  0.00823256     0.84840
O116        O  0.43363706  0.94521604  0.44645031    -0.67270
O117        O  0.55957690  0.13068129  0.01923482    -0.86560
C118        C  0.48094904  0.96624685  0.43903973     0.85670
C119        C  0.47999515  0.85121859  0.49535572     1.07240
H120        H  0.54334985  0.05591709  0.47852464     0.39040
O121        O  0.53727005  0.03658064  0.49813895    -1.09220
O122        O  0.47414676  0.01760292  0.04794377    -0.65870
Ni123      Ni  0.46556898  0.02795558  0.00589993     1.26350
O124        O  0.52007800  0.97422231  0.45705564    -0.66100
O125        O  0.47493137  0.10233280  0.00390997    -0.78390
C126        C  0.35611868  0.99483432  0.99566855     0.85050
O127        O  0.39301880  0.01644079  0.01231995    -0.65570
Ni128      Ni  0.59170146  0.07281784  0.02270091     1.27450
Ni129      Ni  0.53010359  0.96296134  0.49870295     1.26060
H130        H  0.45365742  0.93554974  0.02671256     0.39590
O131        O  0.35905066  0.95694995  0.23319637    -0.80360
O132        O  0.60275140  0.97716994  0.24242877    -0.65050
O133        O  0.45858623  0.95125175  0.26002168    -1.11650
C134        C  0.50697991  0.13843090  0.25716536     1.06530
O135        O  0.63236459  0.02955046  0.27526211    -0.78260
O136        O  0.56262367  0.04920571  0.30717932    -0.65840
Ni137      Ni  0.40401293  0.90989799  0.23723320     1.34870
C138        C  0.51604928  0.02823314  0.31573690     0.85260
O139        O  0.52495230  0.88859642  0.25444693    -0.78800
O140        O  0.44055383  0.85581162  0.24000564    -0.89070
C141        C  0.64042740  0.00238922  0.25737791     0.84840
O142        O  0.43121343  0.94438002  0.19992113    -0.67270
O143        O  0.55341658  0.13398464  0.26455871    -0.86560
C144        C  0.47816134  0.96314941  0.19144574     0.85670
C145        C  0.48637409  0.85071223  0.24820542     1.07240
H146        H  0.53682820  0.05326415  0.22773889     0.39040
O147        O  0.53382088  0.03615943  0.24781331    -1.09220
O148        O  0.47553285  0.01917073  0.29861663    -0.65870
Ni149      Ni  0.46239477  0.02502668  0.25706556     1.26350
O150        O  0.51814490  0.96875080  0.20908442    -0.66100
O151        O  0.46787151  0.09926811  0.25310331    -0.78390
C152        C  0.35247917  0.98602633  0.25038386     0.85050
O153        O  0.39027561  0.01106468  0.26530287    -0.65570
Ni154      Ni  0.58926573  0.07885807  0.26936684     1.27450
Ni155      Ni  0.53038828  0.96265082  0.25076250     1.26060
H156        H  0.45450030  0.93383305  0.28009666     0.39590
O157        O  0.36785916  0.46599713  0.47720183    -0.80360
O158        O  0.60800587  0.48146822  0.48961251    -0.65050
O159        O  0.46349156  0.45452465  0.00593772    -1.11650
C160        C  0.51125110  0.64156700  0.00427969     1.06530
O161        O  0.63373922  0.53243872  0.02275285    -0.78260
O162        O  0.56680721  0.55876444  0.05304098    -0.65840
Ni163      Ni  0.40927280  0.41512902  0.48256268     1.34870
C164        C  0.52126264  0.53386039  0.06219015     0.85260
O165        O  0.52929747  0.39183705  0.50070022    -0.78800
O166        O  0.44436371  0.35938026  0.48676511    -0.89070
C167        C  0.64487714  0.50865437  0.00417773     0.84840
O168        O  0.43822468  0.44730341  0.44552365    -0.67270
O169        O  0.55887565  0.63925063  0.00848657    -0.86560
C170        C  0.48536951  0.46726683  0.43768460     0.85670
C171        C  0.49002307  0.35352338  0.49529165     1.07240
H172        H  0.54027046  0.55648978  0.47431753     0.39040
O173        O  0.53796868  0.53967295  0.49446966    -1.09220
O174        O  0.48116942  0.51954943  0.04546128    -0.65870
Ni175      Ni  0.46690656  0.52756866  0.00419929     1.26350
O176        O  0.52481762  0.47379851  0.45557091    -0.66100
O177        O  0.47204915  0.60137614  0.00204484    -0.78390
C178        C  0.35810616  0.48963381  0.49640171     0.85050
O179        O  0.39480454  0.51170867  0.01300967    -0.65570
Ni180      Ni  0.59355943  0.58363048  0.01499030     1.27450
Ni181      Ni  0.53527559  0.46627850  0.49726333     1.26060
H182        H  0.45884381  0.43605805  0.02580037     0.39590
O183        O  0.36512338  0.47083822  0.22526059    -0.80360
O184        O  0.60476600  0.47598360  0.24033227    -0.65050
O185        O  0.45973235  0.45456033  0.25409469    -1.11650
C186        C  0.51423836  0.64022073  0.25721635     1.06530
O187        O  0.63319902  0.52601192  0.27438041    -0.78260
O188        O  0.56438995  0.54935687  0.30494506    -0.65840
Ni189      Ni  0.40547066  0.41881066  0.22921885     1.34870
C190        C  0.51811882  0.52528915  0.31336187     0.85260
O191        O  0.52276932  0.38930114  0.24816888    -0.78800
O192        O  0.43826222  0.36141941  0.23221062    -0.89070
C193        C  0.64183033  0.50016081  0.25604754     0.84840
O194        O  0.43753007  0.45394848  0.19317057    -0.67270
O195        O  0.56102967  0.63559024  0.26211451    -0.86560
C196        C  0.48540324  0.47310127  0.18627428     0.85670
C197        C  0.48284815  0.35313856  0.24116187     1.07240
H198        H  0.54170724  0.55613942  0.22546547     0.39040
O199        O  0.53765875  0.53776470  0.24536765    -1.09220
O200        O  0.47814521  0.51487533  0.29599608    -0.65870
Ni201      Ni  0.46606307  0.52764709  0.25441676     1.26350
O202        O  0.52345758  0.47528301  0.20500485    -0.66100
O203        O  0.47385108  0.60158089  0.25422184    -0.78390
C204        C  0.35662346  0.49382332  0.24515215     0.85050
O205        O  0.39355353  0.51385327  0.26230859    -0.65570
Ni206      Ni  0.59356842  0.57811086  0.26763391     1.27450
Ni207      Ni  0.53174855  0.46383457  0.24665656     1.26060
H208        H  0.45338737  0.43459652  0.27347560     0.39590
C209        C  0.49475665  0.48215408  0.40600213    -0.04810
C210        C  0.52531892  0.53354466  0.39399602    -0.01920
C211        C  0.53264372  0.54743109  0.36376119     0.03070
C212        C  0.51033238  0.50989596  0.34521083    -0.04800
C213        C  0.48078853  0.45811516  0.35730794    -0.01910
C214        C  0.47288296  0.44445426  0.38750582     0.03060
C215        C  0.54827395  0.57341426  0.41219674     0.37710
C216        C  0.46030217  0.41764635  0.33918079     0.37700
C217        C  0.44382900  0.39063996  0.39971849     0.36130
C218        C  0.56176385  0.60131731  0.35165503     0.36130
N219        N  0.42076882  0.34775707  0.40947808    -0.38690
N220        N  0.58490106  0.64424720  0.34201980    -0.38690
N221        N  0.44366945  0.38405174  0.32557598    -0.38140
N222        N  0.56767169  0.60704619  0.42543535    -0.38140
C223        C  0.51408874  0.52131579  0.09405892    -0.04810
C224        C  0.47081945  0.53076060  0.10554682    -0.01920
C225        C  0.46161251  0.51538884  0.13553196     0.03070
C226        C  0.49743654  0.49331888  0.15481883    -0.04800
C227        C  0.54438466  0.49041627  0.14351378    -0.01910
C228        C  0.55086211  0.50106614  0.11320875     0.03060
C229        C  0.43680736  0.55848284  0.08674041     0.37710
C230        C  0.58785764  0.47947620  0.16256078     0.37700
C231        C  0.59433988  0.48877542  0.10179248     0.36130
C232        C  0.41635614  0.52505704  0.14645377     0.36130
N233        N  0.62863095  0.47816783  0.09284035    -0.38690
N234        N  0.37995870  0.53269396  0.15488142    -0.38690
N235        N  0.62413703  0.47331654  0.17715941    -0.38140
N236        N  0.40991238  0.58110341  0.07196910    -0.38140
C237        C  0.49462487  0.79732569  0.25075170    -0.04810
C238        C  0.47647485  0.75793249  0.27514616    -0.01920
C239        C  0.48222584  0.70621952  0.27709486     0.03070
C240        C  0.50673660  0.69395257  0.25480782    -0.04800
C241        C  0.52514785  0.73348253  0.23047405    -0.01910
C242        C  0.51887887  0.78504122  0.22839193     0.03060
C243        C  0.45255970  0.77096523  0.29842728     0.37710
C244        C  0.54927727  0.72060689  0.20722789     0.37700
C245        C  0.53646383  0.82526331  0.20303467     0.36130
C246        C  0.46367748  0.66582537  0.30222933     0.36130
N247        N  0.55031754  0.85744689  0.18282473    -0.38690
N248        N  0.44882608  0.63354713  0.32224508    -0.38690
N249        N  0.56835825  0.71015785  0.18867819    -0.38140
N250        N  0.43368930  0.78157051  0.31700447    -0.38140
C251        C  0.49896504  0.19272905  0.25226799    -0.04810
C252        C  0.45671505  0.20263920  0.26466253    -0.01920
C253        C  0.45152018  0.25501067  0.26097744     0.03070
C254        C  0.48776084  0.29782807  0.24432193    -0.04800
C255        C  0.52868913  0.28740785  0.23107941    -0.01910
C256        C  0.53424474  0.23528484  0.23497958     0.03060
C257        C  0.41915019  0.15932486  0.28180959     0.37710
C258        C  0.56440054  0.32970174  0.21249512     0.37700
C259        C  0.57512997  0.22512530  0.22002073     0.36130
C260        C  0.41003622  0.26510731  0.27540592     0.36130
N261        N  0.60752281  0.21689919  0.20803620    -0.38690
N262        N  0.37711018  0.27330286  0.28696577    -0.38690
N263        N  0.59373080  0.36211778  0.19740465    -0.38140
N264        N  0.38898527  0.12485689  0.29541895    -0.38140
C265        C  0.48620793  0.79667274  0.49808664    -0.04810
C266        C  0.46205238  0.76428160  0.47710798    -0.01920
C267        C  0.47022440  0.71357456  0.47905961     0.03070
C268        C  0.50130799  0.69419318  0.00240658    -0.04800
C269        C  0.52339754  0.72543872  0.02408827    -0.01910
C270        C  0.51621623  0.77655586  0.02185134     0.03060
C271        C  0.42969767  0.78332480  0.45302116     0.37710
C272        C  0.55205108  0.70423299  0.04934877     0.37700
C273        C  0.53830671  0.80758099  0.04467707     0.36130
C274        C  0.44783121  0.68201429  0.45651080     0.36130
N275        N  0.55604271  0.83230988  0.06284569    -0.38690
N276        N  0.42987666  0.65679263  0.43857986    -0.38690
N277        N  0.57470529  0.68717222  0.06949592    -0.38140
N278        N  0.40377979  0.79837844  0.43384226    -0.38140
C279        C  0.50917111  0.19375397  0.00756120    -0.04810
C280        C  0.46388083  0.20254179  0.01733383    -0.01920
C281        C  0.45787976  0.25457586  0.01347445     0.03070
C282        C  0.49701182  0.29865851  0.49964200    -0.04800
C283        C  0.54252349  0.28977180  0.49019111    -0.01910
C284        C  0.54856500  0.23777666  0.49408529     0.03060
C285        C  0.42388104  0.15823266  0.03218652     0.37710
C286        C  0.58262598  0.33364762  0.47533656     0.37700
C287        C  0.59457203  0.22956533  0.48298469     0.36130
C288        C  0.41198326  0.26266656  0.02473627     0.36130
N289        N  0.63123616  0.22302471  0.47415356    -0.38690
N290        N  0.37537883  0.26909466  0.03369564    -0.38690
N291        N  0.61520706  0.36792955  0.46340521    -0.38460
N292        N  0.39190468  0.12299593  0.04400625    -0.38140
C293        C  0.49123544  0.98264254  0.40767110    -0.04810
C294        C  0.48575403  0.03235975  0.39286331    -0.01920
C295        C  0.49545438  0.04802451  0.36290000     0.03070
C296        C  0.50849103  0.01308039  0.34742292    -0.04800
C297        C  0.51498860  0.96380976  0.36235139    -0.01910
C298        C  0.50763445  0.94919761  0.39258272     0.03060
C299        C  0.47143746  0.06787317  0.40869482     0.37710
C300        C  0.52934039  0.92826919  0.34654919     0.37700
C301        C  0.51836091  0.90050394  0.40826171     0.36130
C302        C  0.49418055  0.10090441  0.34830198     0.36130
N303        N  0.52803378  0.86210332  0.42065425    -0.38690
N304        N  0.49416719  0.14358418  0.33700756    -0.38690
N305        N  0.54066285  0.89998768  0.33385468    -0.38140
N306        N  0.46012742  0.09610382  0.42142905    -0.38140
C307        C  0.48676210  0.97848960  0.15938869    -0.04810
C308        C  0.52611583  0.02490777  0.14813025    -0.01920
C309        C  0.53325997  0.03953562  0.11784559     0.03070
C310        C  0.50277778  0.00705422  0.09825133    -0.04800
C311        C  0.46384099  0.96037109  0.10945852    -0.01910
C312        C  0.45581210  0.94630865  0.13973149     0.03060
C313        C  0.55964384  0.05867936  0.16730410     0.37710
C314        C  0.43287915  0.92524855  0.09021352     0.37700
C315        C  0.41720644  0.89692408  0.15066138     0.36130
C316        C  0.57110963  0.08950411  0.10685057     0.36130
N317        N  0.38646390  0.85752056  0.15932507    -0.38690
N318        N  0.60119897  0.12934833  0.09813526    -0.38690
N319        N  0.40734265  0.89641508  0.07550218    -0.38140
N320        N  0.58780480  0.08652946  0.18167297    -0.38140
C321        C  0.69664225  0.49838656  0.25321256    -0.04810
C322        C  0.73634946  0.54637967  0.24529760    -0.01920
C323        C  0.78860838  0.54536810  0.24222268     0.03070
C324        C  0.80178500  0.49647534  0.24775303    -0.04800
C325        C  0.76199908  0.44845182  0.25549021    -0.01910
C326        C  0.70953021  0.44937172  0.25800919     0.03060
C327        C  0.72293952  0.59678123  0.23924410     0.37710
C328        C  0.77534156  0.39801713  0.26149182     0.37700
C329        C  0.66922259  0.39996235  0.26644011     0.36130
C330        C  0.82795115  0.59426715  0.23160317     0.36130
N331        N  0.63726466  0.36043708  0.27325582    -0.38690
N332        N  0.85890764  0.63331059  0.22266990    -0.38690
N333        N  0.78622110  0.35793286  0.26625960    -0.38140
N334        N  0.71198611  0.63682853  0.23442452    -0.38140
C335        C  0.19720671  0.49944572  0.25413128    -0.04810
C336        C  0.22154864  0.46845768  0.27592737    -0.01920
C337        C  0.27399124  0.46741207  0.27311966     0.03070
C338        C  0.30231630  0.49710548  0.24841946    -0.04800
C339        C  0.27816076  0.52879874  0.22690358    -0.01910
C340        C  0.22549064  0.52913991  0.22948482     0.03060
C341        C  0.19207638  0.43610921  0.30070514     0.37710
C342        C  0.30837307  0.56396728  0.20312164     0.37700
C343        C  0.20038920  0.56065813  0.20688752     0.36130
C344        C  0.29881957  0.43543228  0.29558119     0.36130
N345        N  0.18001939  0.58546579  0.18889548    -0.38690
N346        N  0.31889802  0.41016850  0.31347683    -0.38690
N347        N  0.33195543  0.59344923  0.18434609    -0.38140
N348        N  0.16874842  0.40970112  0.32042214    -0.38140
C349        C  0.70124643  0.51021867  0.00064592    -0.04810
C350        C  0.71529754  0.49298127  0.47641405    -0.01920
C351        C  0.76601696  0.48604794  0.47538693     0.03070
C352        C  0.80667766  0.50429621  0.99616918    -0.04800
C353        C  0.79436394  0.52959722  0.01774956    -0.01910
C354        C  0.74195457  0.53003662  0.02090575     0.03060
C355        C  0.67911555  0.48582286  0.45122967     0.37710
C356        C  0.83512673  0.55656652  0.03684971     0.37700
C357        C  0.73123051  0.55214455  0.04507932     0.36130
C358        C  0.77465936  0.45902858  0.45285431     0.36130
N359        N  0.72347853  0.57016904  0.06434312    -0.38690
N360        N  0.78028323  0.43658589  0.43500784    -0.38690
N361        N  0.86694726  0.57890979  0.05208352    -0.38140
N362        N  0.65081522  0.48100742  0.43091213    -0.38140
C363        C  0.30305442  0.49221569  0.99894465    -0.04810
C364        C  0.29338021  0.53789153  0.00622214    -0.01920
C365        C  0.24142725  0.53913806  0.00982917     0.03070
C366        C  0.19807602  0.49512367  0.00568855    -0.04800
C367        C  0.20767229  0.44949441  0.49832980    -0.01910
C368        C  0.25968645  0.44807726  0.49493766     0.03060
C369        C  0.33631327  0.58511544  0.00879715     0.37710
C370        C  0.16441484  0.40268485  0.49535360     0.37700
C371        C  0.26824006  0.40013328  0.48809282     0.36130
C372        C  0.23290443  0.58687521  0.01699710     0.36130
N373        N  0.27499375  0.36201097  0.48251153    -0.38690
N374        N  0.22620815  0.62479684  0.02287705    -0.38690
N375        N  0.13049111  0.36493140  0.49296741    -0.38140
N376        N  0.36952924  0.62351421  0.01092484    -0.38140
C377        C  0.99398077  0.48545672  0.40677133    -0.04810
C378        C  0.95443133  0.50076486  0.38747576    -0.01920
C379        C  0.96015322  0.51122004  0.35708938     0.03070
C380        C  0.00835256  0.51294313  0.34537201    -0.04800
C381        C  0.04890711  0.49953072  0.36486689    -0.01910
C382        C  0.04178453  0.48588179  0.39518858     0.03060
C383        C  0.90922484  0.51014558  0.39875908     0.37710
C384        C  0.09764669  0.49707695  0.35397031     0.37700
C385        C  0.08442483  0.47242100  0.41417767     0.36130
C386        C  0.91491428  0.51827773  0.33838099     0.36130
N387        N  0.11896344  0.46207679  0.42893620    -0.38690
N388        N  0.87742880  0.52171208  0.32418546    -0.38690
N389        N  0.13673476  0.49517634  0.34558446    -0.38140
N390        N  0.87371290  0.51908335  0.40742689    -0.38140
C391        C  0.01317237  0.51324202  0.09738849    -0.04810
C392        C  0.98638188  0.54086069  0.11079980    -0.01920
C393        C  0.97562877  0.52502894  0.14059246     0.03070
C394        C  0.99457901  0.48366653  0.15749531    -0.04800
C395        C  0.02462402  0.45850452  0.14448954    -0.01910
C396        C  0.03305686  0.47260741  0.11436022     0.03060
C397        C  0.97371111  0.58819630  0.09451622     0.37710
C398        C  0.04633586  0.41768725  0.16201244     0.37700
C399        C  0.06196836  0.44517989  0.10076348     0.36130
C400        C  0.94674260  0.55261663  0.15411250     0.36130
N401        N  0.08505195  0.42338048  0.08988394    -0.38690
N402        N  0.92364030  0.57446471  0.16494658    -0.38690
N403        N  0.06401297  0.38543384  0.17602199    -0.38140
N404        N  0.96501862  0.62691108  0.08187464    -0.38140
C405        C  0.99379916  0.80270163  0.24653996    -0.04810
C406        C  0.03745106  0.79498835  0.23443666    -0.01920
C407        C  0.04390210  0.74330195  0.23717603     0.03070
C408        C  0.00692986  0.69878571  0.25224259    -0.04800
C409        C  0.96343282  0.70683045  0.26439506    -0.01910
C410        C  0.95687392  0.75836859  0.26152394     0.03060
C411        C  0.07494737  0.84000900  0.21832245     0.37710
C412        C  0.92587245  0.66262159  0.28081994     0.37700
C413        C  0.91290426  0.76588777  0.27506417     0.36130
C414        C  0.08775382  0.73593133  0.22352933     0.36130
N415        N  0.87790206  0.77192267  0.28583640    -0.38690
N416        N  0.12269942  0.73003055  0.21264215    -0.38690
N417        N  0.89483026  0.62836169  0.29389356    -0.38140
N418        N  0.10488145  0.87591344  0.20550821    -0.38140
C419        C  0.00264344  0.19612243  0.25544364    -0.04810
C420        C  0.98043708  0.21929083  0.22936508    -0.01920
C421        C  0.97477474  0.27115046  0.22639996     0.03070
C422        C  0.99194099  0.30058818  0.24932782    -0.04800
C423        C  0.01400927  0.27738751  0.27544143    -0.01910
C424        C  0.01902116  0.22521966  0.27855108     0.03060
C425        C  0.96444172  0.19043829  0.20516987     0.37710
C426        C  0.02978196  0.30634311  0.29960412     0.37700
C427        C  0.03930825  0.20079737  0.30598155     0.36130
C428        C  0.95251286  0.29466197  0.19933321     0.36130
N429        N  0.05532534  0.18119507  0.32784943    -0.38690
N430        N  0.93467696  0.31333524  0.17778151    -0.38690
N431        N  0.04232354  0.32938457  0.31888276    -0.38140
N432        N  0.95114014  0.16758768  0.18585672    -0.38140
C433        C  0.80003612  0.99645450  0.24782682    -0.04810
C434        C  0.75793006  0.94926898  0.25023555    -0.01920
C435        C  0.70590195  0.95089787  0.25356549     0.03070
C436        C  0.69522148  0.99984691  0.25430331    -0.04800
C437        C  0.73726756  0.04707210  0.25163680    -0.01910
C438        C  0.78937286  0.04529969  0.24876151     0.03060
C439        C  0.76839229  0.89838025  0.25061570     0.37710
C440        C  0.72674300  0.09813375  0.25065106     0.37700
C441        C  0.83159885  0.09433123  0.24605701     0.36130
C442        C  0.66392300  0.90160294  0.25742313     0.36130
N443        N  0.86459589  0.13397354  0.24408600    -0.38690
N444        N  0.63097749  0.86188671  0.26060828    -0.38690
N445        N  0.71820181  0.13877039  0.24977486    -0.38140
N446        N  0.77687953  0.85788330  0.25095671    -0.38140
C447        C  0.19569753  0.99974694  0.25596228    -0.04810
C448        C  0.23606162  0.04489406  0.24472933    -0.01920
C449        C  0.28753012  0.04060634  0.24292926     0.03070
C450        C  0.29885309  0.99119226  0.25253857    -0.04800
C451        C  0.25850953  0.94608503  0.26388668    -0.01910
C452        C  0.20694306  0.95029877  0.26549147     0.03060
C453        C  0.22409677  0.09540571  0.23413206     0.37710
C454        C  0.27050898  0.89564454  0.27464310     0.37700
C455        C  0.16582164  0.90412985  0.27763415     0.36130
C456        C  0.32823038  0.08651188  0.23011501     0.36130
N457        N  0.13312422  0.86727057  0.28739485    -0.38690
N458        N  0.36043406  0.12317368  0.21968418    -0.38690
N459        N  0.28036136  0.85558233  0.28329181    -0.38140
N460        N  0.21427308  0.13552401  0.22562996    -0.38140
C461        C  0.99621295  0.79902645  0.49824137    -0.04810
C462        C  0.96812476  0.76305792  0.47977165    -0.01920
C463        C  0.97513680  0.71149358  0.48326500     0.03070
C464        C  0.01095616  0.69517136  0.00504253    -0.04800
C465        C  0.03951838  0.73131846  0.02330085    -0.01910
C466        C  0.03229586  0.78283380  0.01990679     0.03060
C467        C  0.93319224  0.77952784  0.45628439     0.37710
C468        C  0.07499046  0.71501304  0.04651299     0.37700
C469        C  0.06116821  0.81842236  0.03949319     0.36130
C470        C  0.94614108  0.67585580  0.46371742     0.36130
N471        N  0.08443587  0.84676377  0.05505412    -0.38690
N472        N  0.92278036  0.64743873  0.44821593    -0.38690
N473        N  0.10324546  0.70202668  0.06502146    -0.38140
N474        N  0.90535566  0.79262212  0.43756513    -0.38140
C475        C  0.00030548  0.19326800  0.00375338    -0.04810
C476        C  0.01878764  0.23152293  0.47898659    -0.01920
C477        C  0.01240054  0.28315869  0.47585861     0.03070
C478        C  0.98904428  0.29731871  0.49791546    -0.04800
C479        C  0.96968928  0.25878210  0.02245904    -0.01910
C480        C  0.97503991  0.20671972  0.02530132     0.03060
C481        C  0.04336267  0.21728525  0.45636934     0.37710
C482        C  0.94472353  0.27294017  0.04491966     0.37700
C483        C  0.95493218  0.16717816  0.05047733     0.36130
C484        C  0.02768962  0.32078244  0.44930639     0.36130
N485        N  0.93832694  0.13555375  0.07042501    -0.38690
N486        N  0.03937805  0.34986626  0.42774390    -0.38690
N487        N  0.92480380  0.28435398  0.06278925    -0.38140
N488        N  0.06292342  0.20581937  0.43837089    -0.38140
C489        C  0.69445833  0.99381095  0.00549258    -0.04810
C490        C  0.70435064  0.94738165  0.49940721    -0.01920
C491        C  0.75658705  0.94561198  0.49686789     0.03070
C492        C  0.79967616  0.99059860  0.99976905    -0.04800
C493        C  0.78958324  0.03753454  0.00486960    -0.01910
C494        C  0.73753103  0.03891310  0.00813486     0.03060
C495        C  0.66112049  0.90061231  0.49632232     0.37710
C496        C  0.83214288  0.08590894  0.00491847     0.37700
C497        C  0.72843097  0.08797007  0.01300224     0.36130
C498        C  0.76575450  0.89665548  0.49193732     0.36130
N499        N  0.72118529  0.12698794  0.01696010    -0.38690
N500        N  0.77305607  0.85770353  0.48791685    -0.38690
N501        N  0.86517860  0.12528079  0.00456741    -0.38140
N502        N  0.62716944  0.86306582  0.49356281    -0.38140
C503        C  0.30171317  0.99943010  0.99772772    -0.04810
C504        C  0.26871959  0.00511892  0.47237506    -0.01920
C505        C  0.21624319  0.00632949  0.47458972     0.03070
C506        C  0.19596295  0.00184409  0.00218944    -0.04800
C507        C  0.22899056  0.99639759  0.02751473    -0.01910
C508        C  0.28161164  0.99581147  0.02529439     0.03060
C509        C  0.28912940  0.01189588  0.44373284     0.37710
C510        C  0.20848135  0.98930314  0.05617278     0.37700
C511        C  0.31436830  0.99016077  0.05174822     0.36130
C512        C  0.18386988  0.01414973  0.44817662     0.36130
N513        N  0.34022843  0.98618417  0.07295993    -0.38690
N514        N  0.15817874  0.02041024  0.42709431    -0.38690
N515        N  0.19226673  0.98358756  0.07904052    -0.38140
N516        N  0.30527740  0.01734393  0.42087240    -0.38140
C517        C  0.98654704  0.97961175  0.40623985    -0.04810
C518        C  0.95900382  0.01345628  0.38863539    -0.01920
C519        C  0.96745298  0.02857883  0.35849748     0.03070
C520        C  0.00364328  0.01004209  0.34575595    -0.04800
C521        C  0.03062574  0.97557051  0.36334173    -0.01910
C522        C  0.02203202  0.96036239  0.39344296     0.03060
C523        C  0.92339886  0.03437249  0.40172645     0.37710
C524        C  0.06602510  0.95429109  0.35031304     0.37700
C525        C  0.04845709  0.92343691  0.41112513     0.36130
C526        C  0.94031662  0.06487192  0.34081912     0.36130
N527        N  0.06935627  0.89392159  0.42528134    -0.38690
N528        N  0.91875098  0.09380879  0.32667105    -0.38690
N529        N  0.09416021  0.93726969  0.33989218    -0.38140
N530        N  0.89510295  0.05111896  0.41219867    -0.38140
C531        C  0.99512158  0.98628749  0.15650534    -0.04810
C532        C  0.01670402  0.03992311  0.14372284    -0.01920
C533        C  0.02568737  0.05345713  0.11361448     0.03070
C534        C  0.01262243  0.01351167  0.09602286    -0.04800
C535        C  0.99289187  0.95965338  0.10903619    -0.01910
C536        C  0.98418365  0.94612816  0.13916459     0.03060
C537        C  0.02844560  0.08160620  0.16123846     0.37710
C538        C  0.98395856  0.91777304  0.09180722     0.37700
C539        C  0.96559740  0.89059393  0.15258070     0.36130
C540        C  0.04751679  0.10876495  0.10065574     0.36130
N541        N  0.95107769  0.84634875  0.16336663    -0.38690
N542        N  0.06510891  0.15285253  0.09036514    -0.38690
N543        N  0.97721917  0.88376199  0.07851404    -0.38140
N544        N  0.03813814  0.11569803  0.17467406    -0.38140
O545        O  0.86492101  0.96469048  0.97843103    -0.80360
O546        O  0.10426064  0.98189499  0.98831079    -0.65050
O547        O  0.96073806  0.95372801  0.50649663    -1.11650
C548        C  0.00894560  0.13987633  0.50720604     1.06530
O549        O  0.13208540  0.03030782  0.52301744    -0.78260
O550        O  0.06457206  0.05326376  0.55494943    -0.65840
Ni551      Ni  0.90525220  0.91294370  0.98449830     1.34870
C552        C  0.01900839  0.02829967  0.56408924     0.85260
O553        O  0.02646017  0.89240788  0.99844602    -0.78800
O554        O  0.93990918  0.85676658  0.98969824    -0.89070
C555        C  0.14121291  0.00513193  0.50442991     0.84840
O556        O  0.93242539  0.94167143  0.94665842    -0.67270
O557        O  0.05634719  0.13687371  0.51170149    -0.86560
C558        C  0.97870162  0.96459486  0.93803263     0.85670
C559        C  0.98703964  0.85283569  0.99523124     1.07240
H560        H  0.03747023  0.05734270  0.97543139     0.39040
O561        O  0.03496032  0.03926557  0.99542999    -1.09220
O562        O  0.97835765  0.01609108  0.54735440    -0.65870
Ni563      Ni  0.96386524  0.02644485  0.50585759     1.26350
O564        O  0.01890114  0.97507508  0.95521027    -0.66100
O565        O  0.96923434  0.10016966  0.50484758    -0.78390
C566        C  0.85485290  0.98808456  0.99765324     0.85050
O567        O  0.89133752  0.01003261  0.51453215    -0.65570
Ni568      Ni  0.09099107  0.08112455  0.51686891     1.27450
Ni569      Ni  0.03193632  0.96620301  0.99670991     1.26060
H570        H  0.95740777  0.93507775  0.52632237     0.39590
O571        O  0.86380650  0.96852253  0.72653485    -0.80360
O572        O  0.10498843  0.98122887  0.74168111    -0.65050
O573        O  0.95992783  0.95748743  0.75585207    -1.11650
C574        C  0.01026845  0.14229050  0.75820068     1.06530
O575        O  0.13435823  0.03263035  0.77522193    -0.78260
O576        O  0.06137669  0.04729700  0.80687964    -0.65840
Ni577      Ni  0.90617475  0.91859714  0.73167791     1.34870
C578        C  0.01391413  0.02736451  0.81423183     0.85260
O579        O  0.02530860  0.89409941  0.75045170    -0.78800
O580        O  0.94102698  0.86301646  0.73530710    -0.89070
C581        C  0.14192607  0.00480863  0.75762417     0.84840
O582        O  0.93660649  0.95175204  0.69504687    -0.67270
O583        O  0.05571230  0.13639071  0.76674455    -0.86560
C584        C  0.98423149  0.97155751  0.68794767     0.85670
C585        C  0.98645807  0.85680663  0.74377750     1.07240
H586        H  0.04271540  0.05999130  0.72673303     0.39040
O587        O  0.03717560  0.04161818  0.74650413    -1.09220
O588        O  0.97477516  0.02183962  0.79601384    -0.65870
Ni589      Ni  0.96484079  0.03093812  0.75421213     1.26350
O590        O  0.02306243  0.97782564  0.70631742    -0.66100
O591        O  0.97152820  0.10482333  0.75167163    -0.78390
C592        C  0.85495356  0.99390965  0.74512181     0.85050
O593        O  0.89194607  0.01726490  0.76116387    -0.65570
Ni594      Ni  0.09107491  0.08137203  0.77024360     1.27450
Ni595      Ni  0.03220558  0.96810126  0.74818884     1.26060
H596        H  0.95428045  0.93888409  0.77563415     0.39590
O597        O  0.87133712  0.47288137  0.97671494    -0.80360
O598        O  0.10665267  0.47691783  0.99089517    -0.65050
O599        O  0.96308277  0.45447014  0.50715019    -1.11650
C600        C  0.01861272  0.64067748  0.50852283     1.06530
O601        O  0.13317920  0.52149523  0.52718786    -0.78260
O602        O  0.06781050  0.55018567  0.55749767    -0.65840
Ni603      Ni  0.90720556  0.41732934  0.98373906     1.34870
C604        C  0.02128376  0.52767858  0.56575319     0.85260
O605        O  0.02470891  0.38954504  0.99850598    -0.78800
O606        O  0.93718015  0.35797501  0.98959003    -0.89070
C607        C  0.14312922  0.49805664  0.50796135     0.84840
O608        O  0.93784732  0.44450681  0.94658026    -0.67270
O609        O  0.06532197  0.63532036  0.51381188    -0.86560
C610        C  0.98453317  0.46798725  0.93865687     0.85670
C611        C  0.98343809  0.35185289  0.99504954     1.07240
H612        H  0.04473101  0.55641924  0.97801600     0.39040
O613        O  0.04055605  0.53746221  0.99780051    -1.09220
O614        O  0.98128530  0.51713203  0.54839636    -0.65870
Ni615      Ni  0.96953488  0.52778372  0.50673038     1.26350
O616        O  0.02347829  0.47697370  0.95669484    -0.66100
O617        O  0.97808152  0.60189568  0.50581164    -0.78390
C618        C  0.86101222  0.49658480  0.49568603     0.85050
O619        O  0.89701515  0.51448932  0.51386931    -0.65570
Ni620      Ni  0.09672376  0.57653971  0.52003450     1.27450
Ni621      Ni  0.03414928  0.46396236  0.99820982     1.26060
H622        H  0.95833295  0.43535957  0.52688525     0.39590
O623        O  0.86503504  0.46839175  0.72686710    -0.80360
O624        O  0.10546022  0.47858549  0.74169380    -0.65050
O625        O  0.96078915  0.45762467  0.75620023    -1.11650
C626        C  0.01412919  0.64430258  0.75546194     1.06530
O627        O  0.13538359  0.53067812  0.77473472    -0.78260
O628        O  0.06400681  0.55191154  0.80514781    -0.65840
Ni629      Ni  0.90627868  0.41777317  0.73289756     1.34870
C630        C  0.01718074  0.53012046  0.81327591     0.85260
O631        O  0.02473992  0.39210534  0.75253803    -0.78800
O632        O  0.94023923  0.36151107  0.73749215    -0.89070
C633        C  0.14293367  0.50277111  0.75713286     0.84840
O634        O  0.93631485  0.44952797  0.69611091    -0.67270
O635        O  0.06000140  0.63839472  0.76291214    -0.86560
C636        C  0.98391276  0.46764120  0.68884284     0.85670
C637        C  0.98536958  0.35489349  0.74626310     1.07240
H638        H  0.04356521  0.55788938  0.72527818     0.39040
O639        O  0.03863074  0.54080820  0.74536320    -1.09220
O640        O  0.97778457  0.52277746  0.79528484    -0.65870
Ni641      Ni  0.96671969  0.53161770  0.75356255     1.26350
O642        O  0.02297879  0.47296964  0.70702287    -0.66100
O643        O  0.97446288  0.60618125  0.75056521    -0.78390
C644        C  0.85664385  0.49469465  0.74502841     0.85050
O645        O  0.89386695  0.51920642  0.76057613    -0.65570
Ni646      Ni  0.09374069  0.58164754  0.76807702     1.27450
Ni647      Ni  0.03280627  0.46661291  0.74862722     1.26060
H648        H  0.95518379  0.43984986  0.77613023     0.39590
O649        O  0.36496876  0.96972222  0.97697924    -0.80360
O650        O  0.60261017  0.97515198  0.99147392    -0.65050
O651        O  0.45860295  0.95423026  0.50696494    -1.11650
C652        C  0.51482141  0.13873214  0.51058693     1.06530
O653        O  0.63033055  0.01973427  0.52771359    -0.78260
O654        O  0.56051077  0.03960727  0.55901131    -0.65840
Ni655      Ni  0.40301738  0.91618147  0.98350828     1.34870
C656        C  0.51294745  0.02194220  0.56640332     0.85260
O657        O  0.52065655  0.88872638  0.99979032    -0.78800
O658        O  0.43415419  0.85779057  0.98883387    -0.89070
C659        C  0.63954528  0.99644351  0.50823347     0.84840
O660        O  0.43363018  0.94520646  0.94645024    -0.67270
O661        O  0.55959388  0.13068921  0.51923938    -0.86560
C662        C  0.48094232  0.96623645  0.93903971     0.85670
C663        C  0.47999672  0.85120875  0.99535498     1.07240
H664        H  0.54333630  0.05590580  0.97852282     0.39040
O665        O  0.53725852  0.03657044  0.99813749    -1.09220
O666        O  0.47415643  0.01761561  0.54794438    -0.65870
Ni667      Ni  0.46558102  0.02797057  0.50590043     1.26350
O668        O  0.52007138  0.97420959  0.95705567    -0.66100
O669        O  0.47494889  0.10234842  0.50391173    -0.78390
C670        C  0.35613084  0.99485519  0.49566710     0.85050
O671        O  0.39303074  0.01646030  0.51231912    -0.65570
Ni672      Ni  0.59171371  0.07282256  0.52270397     1.27450
Ni673      Ni  0.53009731  0.96295179  0.99870297     1.26060
H674        H  0.45366424  0.93556381  0.52671229     0.39590
O675        O  0.35904974  0.95694878  0.73319656    -0.80360
O676        O  0.60275136  0.97716919  0.74243028    -0.65050
O677        O  0.45858565  0.95125156  0.76002186    -1.11650
C678        C  0.50697942  0.13843071  0.75716585     1.06530
O679        O  0.63236468  0.02955057  0.77526321    -0.78260
O680        O  0.56262198  0.04920330  0.80718034    -0.65840
Ni681      Ni  0.40401352  0.90989847  0.73723238     1.34870
C682        C  0.51604719  0.02823128  0.81573744     0.85260
O683        O  0.52495210  0.88859594  0.75444837    -0.78800
O684        O  0.44055541  0.85581303  0.74000365    -0.89070
C685        C  0.64042737  0.00238889  0.75737921     0.84840
O686        O  0.43121489  0.94438397  0.69992095    -0.67270
O687        O  0.55341562  0.13398395  0.76456024    -0.86560
C688        C  0.47816327  0.96315167  0.69144613     0.85670
C689        C  0.48637473  0.85071262  0.74820508     1.07240
H690        H  0.53682886  0.05326393  0.72773960     0.39040
O691        O  0.53382090  0.03615917  0.74781399    -1.09220
O692        O  0.47553122  0.01917057  0.79861673    -0.65870
Ni693      Ni  0.46239444  0.02502667  0.75706556     1.26350
O694        O  0.51814615  0.96875015  0.70908530    -0.66100
O695        O  0.46787127  0.09926819  0.75310305    -0.78390
C696        C  0.35247860  0.98602606  0.75038363     0.85050
O697        O  0.39027513  0.01106507  0.76530230    -0.65570
Ni698      Ni  0.58926504  0.07885750  0.76936818     1.27450
Ni699      Ni  0.53038812  0.96265042  0.75076349     1.26060
H700        H  0.45449878  0.93383265  0.78009676     0.39590
O701        O  0.36784908  0.46599629  0.97719976    -0.80360
O702        O  0.60799140  0.48144863  0.98961300    -0.65050
O703        O  0.46350623  0.45453682  0.50593916    -1.11650
C704        C  0.51125117  0.64157832  0.50427873     1.06530
O705        O  0.63375708  0.53246667  0.52274859    -0.78260
O706        O  0.56681811  0.55877713  0.55303969    -0.65840
Ni707      Ni  0.40925701  0.41512324  0.98255919     1.34870
C708        C  0.52127307  0.53387475  0.56218885     0.85260
O709        O  0.52927710  0.39182075  0.00069622    -0.78800
O710        O  0.44434252  0.35937041  0.98676014    -0.89070
C711        C  0.64489256  0.50867726  0.50417515     0.84840
O712        O  0.43821196  0.44729926  0.94552095    -0.67270
O713        O  0.55887614  0.63926432  0.50848771    -0.86560
C714        C  0.48535752  0.46726091  0.93768277     0.85670
C715        C  0.49000084  0.35350995  0.99528619     1.07240
H716        H  0.54025961  0.55647708  0.97431721     0.39040
O717        O  0.53795820  0.53965597  0.99447298    -1.09220
O718        O  0.48117936  0.51956634  0.54545983    -0.65870
Ni719      Ni  0.46691571  0.52757994  0.50419805     1.26350
O720        O  0.52480483  0.47378868  0.95556973    -0.66100
O721        O  0.47205207  0.60138655  0.50204092    -0.78390
C722        C  0.35809689  0.48963050  0.99640106     0.85050
O723        O  0.39481361  0.51171588  0.51300908    -0.65570
Ni724      Ni  0.59356731  0.58364995  0.51498857     1.27450
Ni725      Ni  0.53526065  0.46626269  0.99726235     1.26060
H726        H  0.45886027  0.43607234  0.52580240     0.39590
O727        O  0.36512367  0.47083925  0.72525782    -0.80360
O728        O  0.60476646  0.47598366  0.74033191    -0.65050
O729        O  0.45973217  0.45456068  0.75409257    -1.11650
C730        C  0.51423792  0.64022039  0.75721618     1.06530
O731        O  0.63319889  0.52601145  0.77438036    -0.78260
O732        O  0.56438774  0.54935380  0.80494493    -0.65840
Ni733      Ni  0.40547162  0.41881210  0.72921572     1.34870
C734        C  0.51811597  0.52528656  0.81336091     0.85260
O735        O  0.52276943  0.38930144  0.74816746    -0.78800
O736        O  0.43826333  0.36142083  0.73220739    -0.89070
C737        C  0.64183051  0.50016068  0.75604738     0.84840
O738        O  0.43753287  0.45395176  0.69316800    -0.67270
O739        O  0.56102890  0.63558933  0.76211538    -0.86560
C740        C  0.48540652  0.47310420  0.68627244     0.85670
C741        C  0.48284862  0.35313932  0.74115966     1.07240
H742        H  0.54170866  0.55614021  0.72546482     0.39040
O743        O  0.53765917  0.53776494  0.74536686    -1.09220
O744        O  0.47814314  0.51487435  0.79599447    -0.65870
Ni745      Ni  0.46606294  0.52764732  0.75441505     1.26350
O746        O  0.52345988  0.47528434  0.70500357    -0.66100
O747        O  0.47385084  0.60158102  0.75422048    -0.78390
C748        C  0.35662330  0.49382359  0.74514964     0.85050
O749        O  0.39355317  0.51385349  0.76230618    -0.65570
Ni750      Ni  0.59356779  0.57811000  0.76763428     1.27450
Ni751      Ni  0.53174879  0.46383483  0.74665538     1.26060
H752        H  0.45338621  0.43459637  0.77347331     0.39590
C753        C  0.49474652  0.48214947  0.90600049    -0.04810
C754        C  0.52530927  0.53354029  0.89399504    -0.01920
C755        C  0.53263702  0.54742707  0.86376047     0.03070
C756        C  0.51032756  0.50989240  0.84520967    -0.04800
C757        C  0.48078288  0.45811151  0.85730606    -0.01910
C758        C  0.47287466  0.44445008  0.88750368     0.03060
C759        C  0.54826141  0.57341029  0.91219583     0.37710
C760        C  0.46029855  0.41764313  0.83917846     0.37700
C761        C  0.44381960  0.39063575  0.89971562     0.36130
C762        C  0.56175840  0.60131324  0.85165499     0.36130
N763        N  0.42075846  0.34775286  0.90947460    -0.38690
N764        N  0.58489666  0.64424307  0.84202033    -0.38690
N765        N  0.44366750  0.38404890  0.82557325    -0.38140
N766        N  0.56765724  0.60704383  0.92543367    -0.38140
C767        C  0.51409868  0.52132868  0.59405772    -0.04810
C768        C  0.47082854  0.53077199  0.60554564    -0.01920
C769        C  0.46161934  0.51539659  0.63553045     0.03070
C770        C  0.49744176  0.49332414  0.65481726    -0.04800
C771        C  0.54439084  0.49042290  0.64351255    -0.01910
C772        C  0.55087110  0.50107745  0.61320761     0.03060
C773        C  0.43681803  0.55849684  0.58673971     0.37710
C774        C  0.58786176  0.47947886  0.66255999     0.37700
C775        C  0.59435136  0.48879083  0.60179140     0.36130
C776        C  0.41636215  0.52506349  0.64645210     0.36130
N777        N  0.62864474  0.47818721  0.59283915    -0.38690
N778        N  0.37996408  0.53269935  0.65487964    -0.38690
N779        N  0.62413955  0.47331586  0.67715911    -0.38140
N780        N  0.40992435  0.58111958  0.57196885    -0.38140
C781        C  0.49462524  0.79732590  0.75075136    -0.04810
C782        C  0.47647571  0.75793300  0.77514603    -0.01920
C783        C  0.48222630  0.70621982  0.77709477     0.03070
C784        C  0.50673640  0.69395240  0.75480763    -0.04800
C785        C  0.52514717  0.73348206  0.73047365    -0.01910
C786        C  0.51887843  0.78504091  0.72839144     0.03060
C787        C  0.45256122  0.77096619  0.79842724     0.37710
C788        C  0.54927597  0.72060598  0.70722740     0.37700
C789        C  0.53646301  0.82526268  0.70303400     0.36130
C790        C  0.46367786  0.66582586  0.80222929     0.36130
N791        N  0.55031641  0.85744601  0.68282392    -0.38690
N792        N  0.44882627  0.63354779  0.82224507    -0.38690
N793        N  0.56835645  0.71015655  0.68867764    -0.38140
N794        N  0.43369135  0.78157186  0.81700451    -0.38140
C795        C  0.49896495  0.19272915  0.75226792    -0.04810
C796        C  0.45671445  0.20263998  0.76466159    -0.01920
C797        C  0.45151972  0.25501164  0.76097577     0.03070
C798        C  0.48776086  0.29782852  0.74432022    -0.04800
C799        C  0.52868956  0.28740758  0.73107844    -0.01910
C800        C  0.53424523  0.23528443  0.73497950     0.03060
C801        C  0.41914874  0.15932614  0.78180841     0.37710
C802        C  0.56440119  0.32970083  0.71249393     0.37700
C803        C  0.57513108  0.22512416  0.72002151     0.36130
C804        C  0.41003538  0.26510906  0.77540355     0.36130
N805        N  0.60752441  0.21689746  0.70803765    -0.38690
N806        N  0.37710906  0.27330521  0.78696286    -0.38690
N807        N  0.59373143  0.36211643  0.69740324    -0.38140
N808        N  0.38898304  0.12485855  0.79541752    -0.38140
C809        C  0.48621247  0.79666396  0.99808536    -0.04810
C810        C  0.46205699  0.76427226  0.97710686    -0.01920
C811        C  0.47022816  0.71356475  0.97905914     0.03070
C812        C  0.50130436  0.69420266  0.50240693    -0.04800
C813        C  0.52339141  0.72544667  0.52408967    -0.01910
C814        C  0.51621019  0.77656375  0.52185298     0.03060
C815        C  0.42970286  0.78331510  0.95301961     0.37710
C816        C  0.55204231  0.70423950  0.54935092     0.37700
C817        C  0.53829939  0.80758821  0.54467914     0.36130
C818        C  0.44783406  0.68200336  0.95651090     0.36130
N819        N  0.55603419  0.83231664  0.56284811    -0.38690
N820        N  0.42987894  0.65678083  0.93858041    -0.38690
N821        N  0.57469424  0.68717755  0.56949873    -0.38140
N822        N  0.40378547  0.79836839  0.93384033    -0.38140
C823        C  0.50919353  0.19376711  0.50756757    -0.04810
C824        C  0.46390390  0.20255557  0.51734049    -0.01920
C825        C  0.45790404  0.25458995  0.51348183     0.03070
C826        C  0.49698699  0.29864448  0.99963426    -0.04800
C827        C  0.54249725  0.28975791  0.99018164    -0.01910
C828        C  0.54854014  0.23776332  0.99407667     0.03060
C829        C  0.42390348  0.15824659  0.53219279     0.37710
C830        C  0.58259628  0.33363336  0.97532403     0.37700
C831        C  0.59454602  0.22955222  0.98297466     0.36130
C832        C  0.41200817  0.26268100  0.52474418     0.36130
N833        N  0.63120917  0.22301173  0.97414237    -0.38690
N834        N  0.37540438  0.26910943  0.53370407    -0.38690
N835        N  0.61517401  0.36791517  0.96338993    -0.38460
N836        N  0.39192674  0.12301002  0.54401233    -0.38140
C837        C  0.49122908  0.98263406  0.90767114    -0.04810
C838        C  0.48574483  0.03235054  0.89286383    -0.01920
C839        C  0.49544679  0.04801768  0.86290076     0.03070
C840        C  0.50848783  0.01307655  0.84742336    -0.04800
C841        C  0.51498827  0.96380674  0.86235138    -0.01910
C842        C  0.50763266  0.94919241  0.89258253     0.03060
C843        C  0.47142440  0.06786116  0.90869569     0.37710
C844        C  0.52934426  0.92826909  0.84654888     0.37700
C845        C  0.51836210  0.90049987  0.90826111     0.36130
C846        C  0.49417076  0.10089734  0.84830346     0.36130
N847        N  0.52803733  0.86210022  0.92065334    -0.38690
N848        N  0.49415577  0.14357703  0.83700969    -0.38690
N849        N  0.54067003  0.89998989  0.83385413    -0.38140
N850        N  0.46011137  0.09608960  0.92143022    -0.38140
C851        C  0.48676549  0.97849340  0.65938925    -0.04810
C852        C  0.52612217  0.02490997  0.64813194    -0.01920
C853        C  0.53326794  0.03953917  0.61784747     0.03070
C854        C  0.50278445  0.00706063  0.59825228    -0.04800
C855        C  0.46384450  0.96037929  0.60945827    -0.01910
C856        C  0.45581403  0.94631551  0.63973106     0.03060
C857        C  0.55965172  0.05867846  0.66730677     0.37710
C858        C  0.43288084  0.92525991  0.59021217     0.37700
C859        C  0.41720508  0.89693255  0.65065968     0.36130
C860        C  0.57112072  0.08950621  0.60685358     0.36130
N861        N  0.38645990  0.85753031  0.65932234    -0.38690
N862        N  0.60121250  0.12934929  0.59813914    -0.38690
N863        N  0.40734278  0.89642906  0.57549993    -0.38140
N864        N  0.58781400  0.08652600  0.68167646    -0.38140
C865        C  0.69664251  0.49838668  0.75321239    -0.04810
C866        C  0.73634957  0.54637990  0.74529743    -0.01920
C867        C  0.78860840  0.54536851  0.74222208     0.03070
C868        C  0.80178510  0.49647580  0.74775198    -0.04800
C869        C  0.76199933  0.44845216  0.75548919    -0.01910
C870        C  0.70953053  0.44937190  0.75800858     0.03060
C871        C  0.72293954  0.59678141  0.73924435     0.37710
C872        C  0.77534190  0.39801753  0.76149043     0.37700
C873        C  0.66922304  0.39996239  0.76643943     0.36130
C874        C  0.82795097  0.59426773  0.73160258     0.36130
N875        N  0.63726519  0.36043703  0.77325506    -0.38690
N876        N  0.85890729  0.63331130  0.72266932    -0.38690
N877        N  0.78622150  0.35793329  0.76625793    -0.38140
N878        N  0.71198605  0.63682868  0.73442510    -0.38140
C879        C  0.19720702  0.49944576  0.75413117    -0.04810
C880        C  0.22155026  0.46845877  0.77592713    -0.01920
C881        C  0.27399247  0.46741286  0.77311846     0.03070
C882        C  0.30231590  0.49710492  0.74841743    -0.04800
C883        C  0.27815902  0.52879714  0.72690167    -0.01910
C884        C  0.22548924  0.52913851  0.72948386     0.03060
C885        C  0.19207967  0.43611162  0.80070577     0.37710
C886        C  0.30836969  0.56396486  0.70311894     0.37700
C887        C  0.20038641  0.56065556  0.70688665     0.36130
C888        C  0.29882209  0.43543419  0.79557994     0.36130
N889        N  0.18001548  0.58546228  0.68889470    -0.38690
N890        N  0.31890152  0.41017128  0.81347554    -0.38690
N891        N  0.33195050  0.59344638  0.68434271    -0.38140
N892        N  0.16875301  0.40970456  0.82042344    -0.38140
C893        C  0.70126105  0.51023877  0.50064334    -0.04810
C894        C  0.71528523  0.49296621  0.97641549    -0.01920
C895        C  0.76600625  0.48603725  0.97538751     0.03070
C896        C  0.80668971  0.50430860  0.49616754    -0.04800
C897        C  0.79437920  0.52961682  0.51774549    -0.01910
C898        C  0.74197068  0.53005857  0.52090197     0.03060
C899        C  0.67910413  0.48580955  0.95123063     0.37710
C900        C  0.83514475  0.55659281  0.53684190     0.37700
C901        C  0.73124887  0.55216987  0.54507475     0.36130
C902        C  0.77465167  0.45902390  0.95285286     0.36130
N903        N  0.72349824  0.57019648  0.56433803    -0.38690
N904        N  0.78027775  0.43658576  0.93500477    -0.38690
N905        N  0.86696778  0.57894199  0.55207235    -0.38140
N906        N  0.65080488  0.48099623  0.93091254    -0.38140
C907        C  0.30306295  0.49221770  0.49894493    -0.04810
C908        C  0.29338738  0.53789309  0.50622229    -0.01920
C909        C  0.24143403  0.53913853  0.50982914     0.03070
C910        C  0.19808358  0.49512357  0.50568848    -0.04800
C911        C  0.20766367  0.44949382  0.99833010    -0.01910
C912        C  0.25967735  0.44807575  0.99493768     0.03060
C913        C  0.33631932  0.58511775  0.50879751     0.37710
C914        C  0.16440574  0.40268438  0.99535451     0.37700
C915        C  0.26823002  0.40013133  0.98809283     0.36130
C916        C  0.23290995  0.58687531  0.51699686     0.36130
N917        N  0.27498302  0.36200873  0.98251153    -0.38690
N918        N  0.22621270  0.62479665  0.52287663    -0.38690
N919        N  0.13048180  0.36493085  0.99296883    -0.38140
N920        N  0.36953401  0.62351731  0.51092547    -0.38140
C921        C  0.99397540  0.48545543  0.90677077    -0.04810
C922        C  0.95442655  0.50076352  0.88747471    -0.01920
C923        C  0.96014967  0.51121893  0.85708842     0.03070
C924        C  0.00834968  0.51294230  0.84537165    -0.04800
C925        C  0.04890354  0.49952974  0.86486703    -0.01910
C926        C  0.04177976  0.48588064  0.89518861     0.03060
C927        C  0.90921942  0.51014405  0.89875746     0.37710
C928        C  0.09764365  0.49707593  0.85397111     0.37700
C929        C  0.08441953  0.47241987  0.91417819     0.36130
C930        C  0.91491121  0.51827639  0.83837953     0.36130
N931        N  0.11895777  0.46207568  0.92893707    -0.38690
N932        N  0.87742608  0.52171054  0.82418360    -0.38690
N933        N  0.13673212  0.49517526  0.84558576    -0.38140
N934        N  0.87370702  0.51908170  0.90742482    -0.38140
C935        C  0.01318065  0.51324352  0.59738930    -0.04810
C936        C  0.98639061  0.54086314  0.61080022    -0.01920
C937        C  0.97563538  0.52503093  0.64059259     0.03070
C938        C  0.99458311  0.48366703  0.65749560    -0.04800
C939        C  0.02462809  0.45850422  0.64449035    -0.01910
C940        C  0.03306295  0.47260761  0.61436125     0.03060
C941        C  0.97372276  0.58820025  0.59451669     0.37710
C942        C  0.04633795  0.41768578  0.66201356     0.37700
C943        C  0.06197428  0.44517927  0.60076497     0.36130
C944        C  0.94674972  0.55261972  0.65411221     0.36130
N945        N  0.08505777  0.42337922  0.58988582    -0.38690
N946        N  0.92364786  0.57446869  0.66494595    -0.38690
N947        N  0.06401356  0.38543147  0.67602335    -0.38140
N948        N  0.96503288  0.62691639  0.58187533    -0.38140
C949        C  0.99379916  0.80270161  0.74653989    -0.04810
C950        C  0.03745140  0.79498844  0.73443687    -0.01920
C951        C  0.04390252  0.74330206  0.73717628     0.03070
C952        C  0.00693002  0.69878576  0.75224258    -0.04800
C953        C  0.96343267  0.70683037  0.76439479    -0.01910
C954        C  0.95687367  0.75836848  0.76152362     0.03060
C955        C  0.07494797  0.84000919  0.71832292     0.37710
C956        C  0.92587217  0.66262141  0.78081951     0.37700
C957        C  0.91290362  0.76588756  0.77506355     0.36130
C958        C  0.08775463  0.73593150  0.72352991     0.36130
N959        N  0.87790113  0.77192239  0.78583554    -0.38690
N960        N  0.12270051  0.73003074  0.71264298    -0.38690
N961        N  0.89482992  0.62836142  0.79389304    -0.38140
N962        N  0.10488226  0.87591371  0.70550886    -0.38140
C963        C  0.00264313  0.19612235  0.75544354    -0.04810
C964        C  0.98043694  0.21929090  0.72936496    -0.01920
C965        C  0.97477464  0.27115053  0.72639988     0.03070
C966        C  0.99194076  0.30058815  0.74932782    -0.04800
C967        C  0.01400886  0.27738729  0.77544145    -0.01910
C968        C  0.01902067  0.22521942  0.77855105     0.03060
C969        C  0.96444173  0.19043853  0.70516968     0.37710
C970        C  0.02978154  0.30634274  0.79960421     0.37700
C971        C  0.03930751  0.20079698  0.80598156     0.36130
C972        C  0.95251297  0.29466214  0.69933309     0.36130
N973        N  0.05532440  0.18119456  0.82784946    -0.38690
N974        N  0.93467725  0.31333547  0.67778134    -0.38690
N975        N  0.04232318  0.32938409  0.81888289    -0.38140
N976        N  0.95114025  0.16758808  0.68585646    -0.38140
C977        C  0.80003575  0.99645439  0.74782685    -0.04810
C978        C  0.75792975  0.94926881  0.75023593    -0.01920
C979        C  0.70590180  0.95089762  0.75356639     0.03070
C980        C  0.69522142  0.99984663  0.75430444    -0.04800
C981        C  0.73726745  0.04707187  0.75163761    -0.01910
C982        C  0.78937259  0.04529955  0.74876176     0.03060
C983        C  0.76839190  0.89838010  0.75061589     0.37710
C984        C  0.72674296  0.09813349  0.75065208     0.37700
C985        C  0.83159850  0.09433118  0.74605689     0.36130
C986        C  0.66392293  0.90160264  0.75742425     0.36130
N987        N  0.86459549  0.13397355  0.74408558    -0.38690
N988        N  0.63097746  0.86188638  0.76060954    -0.38690
N989        N  0.71820183  0.13877011  0.74977604    -0.38140
N990        N  0.77687907  0.85788317  0.75095676    -0.38140
C991        C  0.19569721  0.99974672  0.75596270    -0.04810
C992        C  0.23606115  0.04489381  0.74472956    -0.01920
C993        C  0.28752955  0.04060605  0.74292921     0.03070
C994        C  0.29885255  0.99119196  0.75253843    -0.04800
C995        C  0.25850912  0.94608476  0.76388670    -0.01910
C996        C  0.20694275  0.95029854  0.76549177     0.03060
C997        C  0.22409625  0.09540545  0.73413236     0.37710
C998        C  0.27050859  0.89564424  0.77464302     0.37700
C999        C  0.16582145  0.90412962  0.77763457     0.36130
C1000       C  0.32822962  0.08651152  0.73011470     0.36130
N1001       N  0.13312412  0.86727034  0.78739536    -0.38690
N1002       N  0.36043315  0.12317324  0.71968366    -0.38690
N1003       N  0.28036100  0.85558202  0.78329163    -0.38140
N1004       N  0.21427251  0.13552375  0.72563031    -0.38140
C1005       C  0.99620121  0.79902449  0.99824111    -0.04810
C1006       C  0.96811264  0.76305611  0.97977140    -0.01920
C1007       C  0.97512426  0.71149159  0.98326471     0.03070
C1008       C  0.01096884  0.69517364  0.50504284    -0.04800
C1009       C  0.03953137  0.73132118  0.52330085    -0.01910
C1010       C  0.03230828  0.78283634  0.51990680     0.03060
C1011       C  0.93318033  0.77952641  0.95628414     0.37710
C1012       C  0.07500428  0.71501639  0.54651268     0.37700
C1013       C  0.06118064  0.81842523  0.53949303     0.36130
C1014       C  0.94612836  0.67585397  0.96371710     0.36130
N1015       N  0.08444827  0.84676690  0.55505383    -0.38690
N1016       N  0.92276748  0.64743704  0.94821558    -0.38690
N1017       N  0.10325998  0.70203055  0.56502090    -0.38140
N1018       N  0.90534389  0.79262100  0.93756489    -0.38140
C1019       C  0.00030795  0.19326783  0.50375349    -0.04810
C1020       C  0.01878489  0.23152305  0.97898642    -0.01920
C1021       C  0.01239693  0.28315850  0.97585824     0.03070
C1022       C  0.98904042  0.29731836  0.99791505    -0.04800
C1023       C  0.96969277  0.25878238  0.52245937    -0.01910
C1024       C  0.97504283  0.20671979  0.52530153     0.03060
C1025       C  0.04336018  0.21728552  0.95636922     0.37710
C1026       C  0.94472760  0.27294069  0.54492013     0.37700
C1027       C  0.95493522  0.16717833  0.55047760     0.36130
C1028       C  0.02768514  0.32078197  0.94930582     0.36130
N1029       N  0.93833010  0.13555400  0.57042533    -0.38690
N1030       N  0.03937280  0.34986548  0.92774315    -0.38690
N1031       N  0.92480837  0.28435471  0.56278986    -0.38140
N1032       N  0.06292112  0.20581978  0.93837079    -0.38140
C1033       C  0.69446401  0.99381171  0.50549308    -0.04810
C1034       C  0.70434629  0.94738133  0.99940690    -0.01920
C1035       C  0.75658307  0.94561277  0.99686787     0.03070
C1036       C  0.79968105  0.99059711  0.49976916    -0.04800
C1037       C  0.78958917  0.03753358  0.50486972    -0.01910
C1038       C  0.73753743  0.03891316  0.50813527     0.03060
C1039       C  0.66111722  0.90061137  0.99632156     0.37710
C1040       C  0.83214932  0.08590764  0.50491825     0.37700
C1041       C  0.72843857  0.08797045  0.51300302     0.36130
C1042       C  0.76575190  0.89665661  0.99193769     0.36130
N1043       N  0.72119379  0.12698851  0.51696121    -0.38690
N1044       N  0.77305459  0.85770493  0.98791757    -0.38690
N1045       N  0.86518519  0.12527943  0.50456688    -0.38140
N1046       N  0.62716733  0.86306431  0.99356148    -0.38140
C1047       C  0.30172457  0.99944895  0.49772668    -0.04810
C1048       C  0.26870984  0.00510355  0.97237577    -0.01920
C1049       C  0.21623486  0.00631899  0.97458991     0.03070
C1050       C  0.19597144  0.00185345  0.50218944    -0.04800
C1051       C  0.22900090  0.99641119  0.52751435    -0.01910
C1052       C  0.28162332  0.99582987  0.52529349     0.03060
C1053       C  0.28912017  0.01187929  0.94373380     0.37710
C1054       C  0.20849245  0.98931609  0.55617267     0.37700
C1055       C  0.31438165  0.99018362  0.55174701     0.36130
C1056       C  0.18386340  0.01414332  0.94817651     0.36130
N1057       N  0.34024303  0.98621065  0.57295850    -0.38690
N1058       N  0.15817374  0.02040716  0.92709397    -0.38690
N1059       N  0.19227854  0.98360004  0.57904064    -0.38140
N1060       N  0.30526862  0.01732636  0.92087358    -0.38140
C1061       C  0.98654151  0.97961111  0.90623926    -0.04810
C1062       C  0.95899917  0.01345604  0.88863440    -0.01920
C1063       C  0.96744986  0.02857893  0.85849666     0.03070
C1064       C  0.00364082  0.01004214  0.84575570    -0.04800
C1065       C  0.03062244  0.97557021  0.86334187    -0.01910
C1066       C  0.02202716  0.96036171  0.89344293     0.03060
C1067       C  0.92339361  0.03437237  0.90172490     0.37710
C1068       C  0.06602255  0.95429083  0.85031376     0.37700
C1069       C  0.04845136  0.92343584  0.91112547     0.36130
C1070       C  0.94031438  0.06487243  0.84081792     0.36130
N1071       N  0.06934984  0.89392022  0.92528199    -0.38690
N1072       N  0.91874944  0.09380962  0.82666954    -0.38690
N1073       N  0.09415827  0.93726949  0.83989336    -0.38140
N1074       N  0.89509721  0.05111896  0.91219664    -0.38140
C1075       C  0.99512280  0.98628792  0.65650559    -0.04810
C1076       C  0.01670551  0.03992357  0.64372322    -0.01920
C1077       C  0.02568995  0.05345766  0.61361499     0.03070
C1078       C  0.01262584  0.01351224  0.59602336    -0.04800
C1079       C  0.99289513  0.95965391  0.60903660    -0.01910
C1080       C  0.98418575  0.94612863  0.63916487     0.03060
C1081       C  0.02844631  0.08160659  0.66123885     0.37710
C1082       C  0.98396296  0.91777357  0.59180773     0.37700
C1083       C  0.96559919  0.89059438  0.65258090     0.36130
C1084       C  0.04751962  0.10876551  0.60065639     0.36130
N1085       N  0.95107923  0.84634919  0.66336676    -0.38690
N1086       N  0.06511196  0.15285311  0.59036589    -0.38690
N1087       N  0.97722450  0.88376245  0.57851470    -0.38140
N1088       N  0.03813826  0.11569839  0.67467444    -0.38140
loop_ 
_geom_bond_atom_site_label_1 
_geom_bond_atom_site_label_2 
_geom_bond_distance 
_geom_bond_site_symmetry_2 
_ccdc_geom_bond_type 
O1           Ni7   1.933       .  S
O1           C22   1.273       .  A
O2          Ni25   1.901       .  S
O2          C555   1.266   1_565  A
O3           H26   0.964       .  S
O3          Ni19   1.906   1_565  S
O3         Ni551   1.906   1_554  S
O3         Ni569   1.902   1_654  S
C4           O21   1.274   1_455  A
C4           O13   1.274       .  A
C4          C475   1.477       .  S
O5          Ni24   1.928       .  S
O5           C11   1.271       .  A
O6          Ni24   1.911       .  S
O6            C8   1.269       .  A
Ni7          O10   1.930       .  S
Ni7          O12   1.910       .  S
Ni7         O547   1.906       .  S
C8           O18   1.272   1_455  A
C8          C534   1.484       .  S
O9          Ni25   1.912       .  S
O9           C15   1.275   1_455  A
O10          C15   1.279       .  A
C11         O546   1.266   1_544  A
C11         C506   1.490       .  S
O12          C14   1.268       .  A
O13         Ni24   1.920       .  S
C14          O20   1.270   1_655  A
C14         C517   1.484       .  S
C15         C461   1.496       .  S
H16          O17   0.966       .  S
O17         Ni25   1.911   1_545  S
O17        Ni563   1.907   1_455  S
O17        Ni568   1.912       .  S
O18         Ni19   1.927       .  S
Ni19         O23   1.908       .  S
Ni19         O21   1.916       .  S
Ni19        O561   1.907   1_654  S
O20         Ni25   1.922       .  S
C22         O567   1.269   1_565  A
C22        C1036   1.493       .  S
O23         C566   1.269   1_544  A
Ni24        O561   1.912   1_554  S
Ni25        O547   1.902   1_455  S
O27         Ni33   1.936       .  S
O27          C48   1.273       .  A
O28         Ni51   1.900       .  S
O28          C37   1.265   1_565  A
O29          H52   0.966       .  S
O29         Ni33   1.919       .  S
O29         Ni51   1.910   1_655  S
O29         Ni45   1.907   1_565  S
C30          O47   1.271   1_455  A
C30          O39   1.274       .  A
C30         C419   1.481       .  S
O31         Ni50   1.929       .  S
O31          C37   1.270       .  A
O32         Ni50   1.906       .  S
O32          C34   1.269       .  A
Ni33         O36   1.926       .  S
Ni33         O38   1.909       .  S
C34          O44   1.272   1_455  A
C34         C520   1.486       .  S
O35         Ni51   1.907       .  S
O35          C41   1.272   1_455  A
O36          C41   1.276       .  A
C37         C447   1.477   1_545  S
O38          C40   1.269       .  A
O39         Ni50   1.923       .  S
C40          O46   1.271   1_655  A
C40         C531   1.483       .  S
C41         C405   1.485       .  S
H42          O43   0.964       .  S
O43         Ni51   1.908   1_545  S
O43         Ni45   1.911   1_455  S
O43         Ni50   1.919       .  S
O44         Ni45   1.928       .  S
Ni45         O49   1.905       .  S
Ni45         O47   1.903       .  S
O46         Ni51   1.929       .  S
C48          O49   1.266   1_565  A
C48         C433   1.491       .  S
O53         Ni59   1.934       .  S
O53         C618   1.272       .  A
O54         Ni77   1.902       .  S
O54         C607   1.267       .  A
O55          H78   0.966       .  S
O55         Ni71   1.904       .  S
O55        Ni603   1.909   1_554  S
O55        Ni621   1.900   1_654  S
C56          O73   1.275   1_455  A
C56          O65   1.280       .  A
C56         C464   1.496       .  S
O57         Ni76   1.933       .  S
O57          C63   1.272       .  A
O58         Ni76   1.905       .  S
O58          C60   1.267       .  A
Ni59         O62   1.923       .  S
Ni59         O64   1.912       .  S
Ni59        O599   1.909       .  S
C60          O70   1.271   1_455  A
C60         C391   1.477       .  S
O61         Ni77   1.920       .  S
O61          C67   1.277   1_455  A
O62          C67   1.276       .  A
C63         O598   1.267   1_554  A
C63         C366   1.492       .  S
O64          C66   1.270       .  A
O65         Ni76   1.932       .  S
C66          O72   1.267   1_655  A
C66         C377   1.498       .  S
C67         C478   1.479       .  S
H68          O69   0.966       .  S
O69         Ni77   1.909       .  S
O69        Ni615   1.898   1_455  S
O69        Ni620   1.902       .  S
O70         Ni71   1.925       .  S
Ni71         O75   1.899       .  S
Ni71         O73   1.911       .  S
Ni71        O613   1.898   1_654  S
O72         Ni77   1.916       .  S
C74          O75   1.267   1_556  A
C74         O597   1.272       .  A
C74         C352   1.511       .  S
Ni76        O613   1.902   1_554  S
Ni77        O599   1.900   1_455  S
O79         Ni85   1.926       .  S
O79         C100   1.269       .  A
O80        Ni103   1.905       .  S
O80          C89   1.265       .  A
O81         H104   0.966       .  S
O81         Ni85   1.916       .  S
O81        Ni103   1.910   1_655  S
O81         Ni97   1.909       .  S
C82          O99   1.273   1_455  A
C82          O91   1.275       .  A
C82         C408   1.492       .  S
O83        Ni102   1.941       .  S
O83          C89   1.272       .  A
O84        Ni102   1.906       .  S
O84          C86   1.270       .  A
Ni85         O88   1.922       .  S
Ni85         O90   1.905       .  S
C86          O96   1.272   1_455  A
C86         C380   1.505       .  S
O87        Ni103   1.906       .  S
O87          C93   1.272   1_455  A
O88          C93   1.275       .  A
C89         C335   1.484       .  S
O90          C92   1.268       .  A
O91        Ni102   1.928       .  S
C92          O98   1.269   1_655  A
C92         C394   1.478       .  S
C93         C422   1.481       .  S
H94          O95   0.966       .  S
O95        Ni103   1.912       .  S
O95         Ni97   1.914   1_455  S
O95        Ni102   1.920       .  S
O96         Ni97   1.927       .  S
Ni97        O101   1.910       .  S
Ni97         O99   1.913       .  S
O98        Ni103   1.922       .  S
C100        O101   1.268       .  A
C100        C324   1.483       .  S
O105       Ni111   1.929       .  S
O105        C670   1.271       .  A
O106       Ni129   1.904       .  S
O106        C659   1.266       .  A
O107        H130   0.964       .  S
O107       Ni123   1.908   1_565  S
O107       Ni655   1.915   1_554  S
O107       Ni673   1.906   1_554  S
C108        O125   1.273       .  A
C108        O117   1.278       .  A
C108        C279   1.491       .  S
O109       Ni128   1.933       .  S
O109        C115   1.272   1_545  A
O110       Ni128   1.904       .  S
O110        C112   1.268       .  A
Ni111       O114   1.921       .  S
Ni111       O116   1.913       .  S
Ni111       O651   1.915       .  S
C112        O122   1.272       .  A
C112        C310   1.497       .  S
O113       Ni129   1.909       .  S
O113        C119   1.274       .  A
O114        C119   1.275       .  A
C115        O650   1.266   1_554  A
C115        C489   1.493       .  S
O116        C118   1.269       .  A
O117       Ni128   1.933       .  S
C118        O124   1.268       .  A
C118        C293   1.478       .  S
C119        C265   1.486       .  S
H120        O121   0.966       .  S
O121       Ni129   1.907   1_545  S
O121       Ni667   1.906       .  S
O121       Ni672   1.911       .  S
O122       Ni123   1.936       .  S
Ni123       O127   1.899       .  S
Ni123       O125   1.907       .  S
Ni123       O665   1.906   1_554  S
O124       Ni129   1.920       .  S
C126        O127   1.265   1_566  A
C126        O649   1.271       .  A
C126        C503   1.492       .  S
Ni128       O665   1.911   1_554  S
Ni129       O651   1.906       .  S
O131       Ni137   1.930       .  S
O131        C152   1.271       .  A
O132       Ni155   1.905       .  S
O132        C141   1.266   1_565  A
O133        H156   0.966       .  S
O133       Ni137   1.921       .  S
O133       Ni155   1.914       .  S
O133       Ni149   1.914   1_565  S
C134        O151   1.272       .  A
C134        O143   1.277       .  A
C134        C251   1.490       .  S
O135       Ni154   1.935       .  S
O135        C141   1.273       .  A
O136       Ni154   1.907       .  S
O136        C138   1.268       .  A
Ni137       O140   1.927       .  S
Ni137       O142   1.913       .  S
C138        O148   1.271       .  A
C138        C296   1.478       .  S
O139       Ni155   1.908       .  S
O139        C145   1.271       .  A
O140        C145   1.273       .  A
C141        C436   1.491   1_545  S
O142        C144   1.270       .  A
O143       Ni154   1.929       .  S
C144        O150   1.272       .  A
C144        C307   1.499       .  S
C145        C237   1.477       .  S
H146        O147   0.963       .  S
O147       Ni155   1.909   1_545  S
O147       Ni149   1.906       .  S
O147       Ni154   1.917       .  S
O148       Ni149   1.928       .  S
Ni149       O153   1.899       .  S
Ni149       O151   1.912       .  S
O150       Ni155   1.931       .  S
C152        O153   1.265   1_565  A
C152        C450   1.478       .  S
O157       Ni163   1.937       .  S
O157        C178   1.273       .  A
O158       Ni181   1.904       .  S
O158        C711   1.266       .  A
O159        H182   0.966       .  S
O159       Ni175   1.905       .  S
O159       Ni707   1.909   1_554  S
O159       Ni725   1.904   1_554  S
C160        O177   1.274       .  A
C160        O169   1.274       .  A
C160        C268   1.481       .  S
O161       Ni180   1.917       .  S
O161        C167   1.267       .  A
O162       Ni180   1.906       .  S
O162        C164   1.268       .  A
Ni163       O166   1.932       .  S
Ni163       O168   1.907       .  S
Ni163       O703   1.909       .  S
C164        O174   1.270       .  A
C164        C223   1.483       .  S
O165       Ni181   1.917       .  S
O165        C171   1.277       .  A
O166        C171   1.279       .  A
C167        O702   1.266   1_554  A
C167        C349   1.504       .  S
O168        C170   1.268       .  A
O169       Ni180   1.915       .  S
C170        O176   1.269       .  A
C170        C209   1.486       .  S
C171        C282   1.495       .  S
H172        O173   0.963       .  S
O173       Ni181   1.912       .  S
O173       Ni719   1.899       .  S
O173       Ni724   1.908       .  S
O174       Ni175   1.916       .  S
Ni175       O179   1.900       .  S
Ni175       O177   1.912       .  S
Ni175       O717   1.899   1_554  S
O176       Ni181   1.925       .  S
C178        O723   1.266       .  A
C178        C907   1.494       .  S
O179        C722   1.266   1_554  A
Ni180       O717   1.908   1_554  S
Ni181       O703   1.904       .  S
O183       Ni189   1.947       .  S
O183        C204   1.275       .  A
O184       Ni207   1.908       .  S
O184        C193   1.266       .  A
O185        H208   0.963       .  S
O185       Ni189   1.912       .  S
O185       Ni207   1.907       .  S
O185       Ni201   1.905       .  S
C186        O203   1.273       .  A
C186        O195   1.274       .  A
C186        C240   1.479       .  S
O187       Ni206   1.927       .  S
O187        C193   1.270       .  A
O188       Ni206   1.908       .  S
O188        C190   1.270       .  A
Ni189       O192   1.936       .  S
Ni189       O194   1.912       .  S
C190        O200   1.271       .  A
C190        C212   1.486       .  S
O191       Ni207   1.916       .  S
O191        C197   1.276       .  A
O192        C197   1.279       .  A
C193        C321   1.483       .  S
O194        C196   1.271       .  A
O195       Ni206   1.923       .  S
C196        O202   1.268       .  A
C196        C226   1.499       .  S
C197        C254   1.491       .  S
H198        O199   0.966       .  S
O199       Ni207   1.917       .  S
O199       Ni201   1.912       .  S
O199       Ni206   1.914       .  S
O200       Ni201   1.923       .  S
Ni201       O205   1.906       .  S
Ni201       O203   1.916       .  S
O202       Ni207   1.917       .  S
C204        O205   1.267       .  A
C204        C338   1.487       .  S
C209        C210   1.415       .  A
C209        C214   1.413       .  A
C210        C211   1.410       .  A
C210        C215   1.450       .  S
C211        C212   1.414       .  A
C211        C218   1.454       .  S
C212        C213   1.415       .  A
C213        C214   1.411       .  A
C213        C216   1.450       .  S
C214        C217   1.453       .  S
C215        N222   1.157       .  T
C216        N221   1.157       .  T
C217        N219   1.157       .  T
C218        N220   1.157       .  T
C223        C224   1.411       .  A
C223        C228   1.411       .  A
C224        C225   1.409       .  A
C224        C229   1.452       .  S
C225        C226   1.418       .  A
C225        C232   1.449       .  S
C226        C227   1.422       .  A
C227        C228   1.410       .  A
C227        C230   1.450       .  S
C228        C231   1.452       .  S
C229        N236   1.157       .  T
C230        N235   1.157       .  T
C231        N233   1.157       .  T
C232        N234   1.156       .  T
C237        C238   1.412       .  A
C237        C242   1.410       .  A
C238        C239   1.411       .  A
C238        C243   1.451       .  S
C239        C240   1.411       .  A
C239        C246   1.451       .  S
C240        C241   1.413       .  A
C241        C242   1.411       .  A
C241        C244   1.451       .  S
C242        C245   1.451       .  S
C243        N250   1.157       .  T
C244        N249   1.157       .  T
C245        N247   1.157       .  T
C246        N248   1.157       .  T
C251        C252   1.415       .  A
C251        C256   1.414       .  A
C252        C253   1.414       .  A
C252        C257   1.451       .  S
C253        C254   1.416       .  A
C253        C260   1.452       .  S
C254        C255   1.412       .  A
C255        C256   1.410       .  A
C255        C258   1.446       .  S
C256        C259   1.453       .  S
C257        N264   1.158       .  T
C258        N263   1.155       .  T
C259        N261   1.157       .  T
C260        N262   1.157       .  T
C265        C266   1.417       .  A
C265        C814   1.415       .  A
C266        C267   1.410       .  A
C266        C271   1.452       .  S
C267        C812   1.412       .  A
C267        C274   1.452       .  S
C268        C269   1.413       .  A
C268        C811   1.412   1_554  A
C269        C270   1.408       .  A
C269        C272   1.453       .  S
C270        C809   1.415   1_554  A
C270        C273   1.453       .  S
C271        N278   1.158       .  T
C272        N277   1.157       .  T
C273        N275   1.157       .  T
C274        N276   1.157       .  T
C279        C280   1.415       .  A
C279        C828   1.415   1_554  A
C280        C281   1.413       .  A
C280        C285   1.452       .  S
C281        C826   1.418   1_554  A
C281        C288   1.452       .  S
C282        C283   1.415       .  A
C282        C825   1.418       .  A
C283        C284   1.412       .  A
C283        C286   1.448       .  S
C284        C823   1.415       .  A
C284        C287   1.453       .  S
C285        N292   1.157       .  T
C286        N291   1.156       .  T
C287        N289   1.157       .  T
C288        N290   1.157       .  T
C293        C294   1.410   1_565  A
C293        C298   1.412       .  A
C294        C295   1.411       .  A
C294        C299   1.451       .  S
C295        C296   1.411       .  A
C295        C302   1.449       .  S
C296        C297   1.411   1_545  A
C297        C298   1.411       .  A
C297        C300   1.451       .  S
C298        C301   1.450       .  S
C299        N306   1.157       .  T
C300        N305   1.157       .  T
C301        N303   1.157       .  T
C302        N304   1.157       .  T
C307        C308   1.418   1_565  A
C307        C312   1.418       .  A
C308        C309   1.412       .  A
C308        C313   1.451       .  S
C309        C310   1.417       .  A
C309        C316   1.454       .  S
C310        C311   1.416   1_545  A
C311        C312   1.415       .  A
C311        C314   1.450       .  S
C312        C315   1.452       .  S
C313        N320   1.157       .  T
C314        N319   1.157       .  T
C315        N317   1.157       .  T
C316        N318   1.157       .  T
C321        C322   1.415       .  A
C321        C326   1.411       .  A
C322        C323   1.411       .  A
C322        C327   1.452       .  S
C323        C324   1.411       .  A
C323        C330   1.450       .  S
C324        C325   1.415       .  A
C325        C326   1.411       .  A
C325        C328   1.452       .  S
C326        C329   1.451       .  S
C327        N334   1.157       .  T
C328        N333   1.157       .  T
C329        N331   1.157       .  T
C330        N332   1.157       .  T
C335        C336   1.411       .  A
C335        C340   1.412       .  A
C336        C337   1.414       .  A
C336        C341   1.449       .  S
C337        C338   1.414       .  A
C337        C344   1.451       .  S
C338        C339   1.412       .  A
C339        C340   1.412       .  A
C339        C342   1.448       .  S
C340        C343   1.452       .  S
C341        N348   1.157       .  T
C342        N347   1.157       .  T
C343        N345   1.157       .  T
C344        N346   1.157       .  T
C349        C354   1.419       .  A
C349        C894   1.417   1_554  A
C350        C351   1.411       .  A
C350        C893   1.417       .  A
C350        C355   1.454       .  S
C351        C896   1.424       .  A
C351        C358   1.452       .  S
C352        C353   1.423   1_556  A
C352        C895   1.424       .  A
C353        C354   1.411       .  A
C353        C356   1.450       .  S
C354        C357   1.454       .  S
C355        N362   1.158       .  T
C356        N361   1.156       .  T
C357        N359   1.158       .  T
C358        N360   1.158       .  T
C363        C722   1.494       .  S
C363        C364   1.417   1_556  A
C363        C912   1.417       .  A
C364        C365   1.411       .  A
C364        C369   1.451       .  S
C365        C366   1.416       .  A
C365        C372   1.454       .  S
C366        C911   1.416   1_554  A
C367        C368   1.411       .  A
C367        C910   1.416       .  A
C367        C370   1.451       .  S
C368        C907   1.417       .  A
C368        C371   1.453       .  S
C369        N376   1.157       .  T
C370        N375   1.157       .  T
C371        N373   1.158       .  T
C372        N374   1.158       .  T
C377        C378   1.414       .  A
C377        C382   1.418   1_655  A
C378        C379   1.410       .  A
C378        C383   1.452       .  S
C379        C380   1.420   1_655  A
C379        C386   1.450       .  S
C380        C381   1.422       .  A
C381        C382   1.413       .  A
C381        C384   1.453       .  S
C382        C385   1.453       .  S
C383        N390   1.157       .  T
C384        N389   1.157       .  T
C385        N387   1.157       .  T
C386        N388   1.157       .  T
C391        C392   1.411   1_455  A
C391        C396   1.411       .  A
C392        C393   1.409       .  A
C392        C397   1.450       .  S
C393        C394   1.412       .  A
C393        C400   1.452       .  S
C394        C395   1.413   1_655  A
C395        C396   1.410       .  A
C395        C398   1.451       .  S
C396        C399   1.451       .  S
C397        N404   1.157       .  T
C398        N403   1.157       .  T
C399        N401   1.157       .  T
C400        N402   1.157       .  T
C405        C406   1.413   1_655  A
C405        C410   1.412       .  A
C406        C407   1.413       .  A
C406        C411   1.452       .  S
C407        C408   1.417       .  A
C407        C414   1.452       .  S
C408        C409   1.415   1_455  A
C409        C410   1.409       .  A
C409        C412   1.448       .  S
C410        C413   1.453       .  S
C411        N418   1.157       .  T
C412        N417   1.156       .  T
C413        N415   1.157       .  T
C414        N416   1.157       .  T
C419        C420   1.414   1_455  A
C419        C424   1.414       .  A
C420        C421   1.408       .  A
C420        C425   1.452       .  S
C421        C422   1.414       .  A
C421        C428   1.453       .  S
C422        C423   1.414   1_655  A
C423        C424   1.409       .  A
C423        C426   1.452       .  S
C424        C427   1.452       .  S
C425        N432   1.157       .  T
C426        N431   1.157       .  T
C427        N429   1.157       .  T
C428        N430   1.157       .  T
C433        C434   1.416       .  A
C433        C438   1.414   1_565  A
C434        C435   1.413       .  A
C434        C439   1.452       .  S
C435        C436   1.415       .  A
C435        C442   1.451       .  S
C436        C437   1.415   1_565  A
C437        C438   1.412       .  A
C437        C440   1.453       .  S
C438        C441   1.449       .  S
C439        N446   1.157       .  T
C440        N445   1.157       .  T
C441        N443   1.156       .  T
C442        N444   1.157       .  T
C447        C448   1.412   1_565  A
C447        C452   1.410       .  A
C448        C449   1.410       .  A
C448        C453   1.452       .  S
C449        C450   1.411   1_545  A
C449        C456   1.451       .  S
C450        C451   1.413       .  A
C451        C452   1.410       .  A
C451        C454   1.451       .  S
C452        C455   1.451       .  S
C453        N460   1.157       .  T
C454        N459   1.157       .  T
C455        N457   1.157       .  T
C456        N458   1.157       .  T
C461        C462   1.417       .  A
C461       C1010   1.418   1_655  A
C462        C463   1.412       .  A
C462        C467   1.453       .  S
C463       C1008   1.418   1_655  A
C463        C470   1.453       .  S
C464        C465   1.416       .  A
C464       C1007   1.418   1_454  A
C465        C466   1.413       .  A
C465        C468   1.452       .  S
C466       C1005   1.418   1_454  A
C466        C469   1.452       .  S
C467        N474   1.157       .  T
C468        N473   1.157       .  T
C469        N471   1.158       .  T
C470        N472   1.158       .  T
C475        C480   1.411   1_455  A
C475       C1020   1.411   1_554  A
C476        C477   1.409       .  A
C476       C1019   1.411       .  A
C476        C481   1.452       .  S
C477        C478   1.410   1_455  A
C477        C484   1.449       .  S
C478       C1023   1.412       .  A
C479        C480   1.411       .  A
C479       C1022   1.412   1_554  A
C479        C482   1.451       .  S
C480        C483   1.451       .  S
C481        N488   1.157       .  T
C482        N487   1.157       .  T
C483        N485   1.157       .  T
C484        N486   1.156       .  T
C489        C494   1.417   1_565  A
C489       C1034   1.416   1_554  A
C490        C491   1.413       .  A
C490       C1033   1.416       .  A
C490        C495   1.451       .  S
C491       C1036   1.417       .  A
C491        C498   1.453       .  S
C492        C566   1.493       .  S
C492        C493   1.414   1_566  A
C492       C1035   1.417       .  A
C493        C494   1.411       .  A
C493        C496   1.449       .  S
C494        C497   1.453       .  S
C495        N502   1.157       .  T
C496        N501   1.156       .  T
C497        N499   1.158       .  T
C498        N500   1.157       .  T
C503        C508   1.417   1_556  A
C503       C1048   1.416   1_565  A
C504        C505   1.411       .  A
C504       C1047   1.416   1_545  A
C504        C509   1.452       .  S
C505       C1050   1.416       .  A
C505        C512   1.453       .  S
C506        C507   1.415   1_545  A
C506       C1049   1.416   1_554  A
C507        C508   1.410       .  A
C507        C510   1.453       .  S
C508        C511   1.452       .  S
C509        N516   1.158       .  T
C510        N515   1.157       .  T
C511        N513   1.157       .  T
C512        N514   1.157       .  T
C517        C518   1.413   1_565  A
C517        C522   1.413   1_655  A
C518        C519   1.412       .  A
C518        C523   1.451       .  S
C519        C520   1.415   1_655  A
C519        C526   1.452       .  S
C520        C521   1.414   1_545  A
C521        C522   1.411       .  A
C521        C524   1.452       .  S
C522        C525   1.452       .  S
C523        N530   1.157       .  T
C524        N529   1.157       .  T
C525        N527   1.157       .  T
C526        N528   1.158       .  T
C531        C532   1.412   1_665  A
C531        C536   1.412       .  A
C532        C533   1.412       .  A
C532        C537   1.449       .  S
C533        C534   1.413       .  A
C533        C540   1.452       .  S
C534        C535   1.413   1_445  A
C535        C536   1.411       .  A
C535        C538   1.451       .  S
C536        C539   1.452       .  S
C537        N544   1.157       .  T
C538        N543   1.157       .  T
C539        N541   1.157       .  T
C540        N542   1.157       .  T
O545       Ni551   1.933       .  S
O545        C566   1.273       .  A
O546       Ni569   1.901       .  S
O547        H570   0.964       .  S
O547       Ni563   1.906   1_565  S
C548        O565   1.274   1_455  A
C548        O557   1.274       .  A
C548       C1019   1.477       .  S
O549       Ni568   1.928       .  S
O549        C555   1.271       .  A
O550       Ni568   1.911       .  S
O550        C552   1.269       .  A
Ni551       O554   1.930       .  S
Ni551       O556   1.910       .  S
C552        O562   1.272   1_455  A
C552       C1078   1.484       .  S
O553       Ni569   1.912       .  S
O553        C559   1.275   1_455  A
O554        C559   1.279       .  A
C555       C1050   1.490       .  S
O556        C558   1.268       .  A
O557       Ni568   1.920       .  S
C558        O564   1.270   1_655  A
C558       C1061   1.484       .  S
C559       C1005   1.496       .  S
H560        O561   0.966       .  S
O561       Ni569   1.911   1_545  S
O562       Ni563   1.927       .  S
Ni563       O567   1.908       .  S
Ni563       O565   1.916       .  S
O564       Ni569   1.922       .  S
O571       Ni577   1.936       .  S
O571        C592   1.273       .  A
O572       Ni595   1.900       .  S
O572        C581   1.265   1_565  A
O573        H596   0.966       .  S
O573       Ni577   1.919       .  S
O573       Ni595   1.910   1_655  S
O573       Ni589   1.907   1_565  S
C574        O591   1.271   1_455  A
C574        O583   1.274       .  A
C574        C963   1.481       .  S
O575       Ni594   1.929       .  S
O575        C581   1.270       .  A
O576       Ni594   1.906       .  S
O576        C578   1.269       .  A
Ni577       O580   1.926       .  S
Ni577       O582   1.909       .  S
C578        O588   1.272   1_455  A
C578       C1064   1.486       .  S
O579       Ni595   1.907       .  S
O579        C585   1.272   1_455  A
O580        C585   1.276       .  A
C581        C991   1.477   1_545  S
O582        C584   1.269       .  A
O583       Ni594   1.923       .  S
C584        O590   1.271   1_655  A
C584       C1075   1.483       .  S
C585        C949   1.485       .  S
H586        O587   0.964       .  S
O587       Ni595   1.908   1_545  S
O587       Ni589   1.911   1_455  S
O587       Ni594   1.919       .  S
O588       Ni589   1.928       .  S
Ni589       O593   1.905       .  S
Ni589       O591   1.903       .  S
O590       Ni595   1.929       .  S
C592        O593   1.266   1_565  A
C592        C977   1.491       .  S
O597       Ni603   1.934       .  S
O598       Ni621   1.902       .  S
O599        H622   0.966       .  S
O599       Ni615   1.904       .  S
C600        O617   1.275   1_455  A
C600        O609   1.280       .  A
C600       C1008   1.496       .  S
O601       Ni620   1.933       .  S
O601        C607   1.272       .  A
O602       Ni620   1.905       .  S
O602        C604   1.267       .  A
Ni603       O606   1.923       .  S
Ni603       O608   1.912       .  S
C604        O614   1.271   1_455  A
C604        C935   1.477       .  S
O605       Ni621   1.920       .  S
O605        C611   1.277   1_455  A
O606        C611   1.276       .  A
C607        C910   1.492       .  S
O608        C610   1.270       .  A
O609       Ni620   1.932       .  S
C610        O616   1.267   1_655  A
C610        C921   1.498       .  S
C611       C1022   1.479       .  S
H612        O613   0.966       .  S
O613       Ni621   1.909       .  S
O614       Ni615   1.925       .  S
Ni615       O619   1.899       .  S
Ni615       O617   1.911       .  S
O616       Ni621   1.916       .  S
C618        O619   1.267       .  A
C618        C896   1.511       .  S
O623       Ni629   1.926       .  S
O623        C644   1.269       .  A
O624       Ni647   1.905       .  S
O624        C633   1.265       .  A
O625        H648   0.966       .  S
O625       Ni629   1.916       .  S
O625       Ni647   1.910   1_655  S
O625       Ni641   1.909       .  S
C626        O643   1.273   1_455  A
C626        O635   1.275       .  A
C626        C952   1.492       .  S
O627       Ni646   1.941       .  S
O627        C633   1.272       .  A
O628       Ni646   1.906       .  S
O628        C630   1.270       .  A
Ni629       O632   1.922       .  S
Ni629       O634   1.905       .  S
C630        O640   1.272   1_455  A
C630        C924   1.505       .  S
O631       Ni647   1.906       .  S
O631        C637   1.272   1_455  A
O632        C637   1.275       .  A
C633        C879   1.484       .  S
O634        C636   1.268       .  A
O635       Ni646   1.928       .  S
C636        O642   1.269   1_655  A
C636        C938   1.478       .  S
C637        C966   1.481       .  S
H638        O639   0.966       .  S
O639       Ni647   1.912       .  S
O639       Ni641   1.914   1_455  S
O639       Ni646   1.920       .  S
O640       Ni641   1.927       .  S
Ni641       O645   1.910       .  S
Ni641       O643   1.913       .  S
O642       Ni647   1.922       .  S
C644        O645   1.268       .  A
C644        C868   1.483       .  S
O649       Ni655   1.929       .  S
O650       Ni673   1.904       .  S
O651        H674   0.964       .  S
O651       Ni667   1.908   1_565  S
C652        O669   1.273       .  A
C652        O661   1.278       .  A
C652        C823   1.491       .  S
O653       Ni672   1.933       .  S
O653        C659   1.272   1_545  A
O654       Ni672   1.904       .  S
O654        C656   1.268       .  A
Ni655       O658   1.921       .  S
Ni655       O660   1.913       .  S
C656        O666   1.272       .  A
C656        C854   1.497       .  S
O657       Ni673   1.909       .  S
O657        C663   1.274       .  A
O658        C663   1.275       .  A
C659       C1033   1.493       .  S
O660        C662   1.269       .  A
O661       Ni672   1.933       .  S
C662        O668   1.268       .  A
C662        C837   1.478       .  S
C663        C809   1.486       .  S
H664        O665   0.966       .  S
O665       Ni673   1.907   1_545  S
O666       Ni667   1.936       .  S
Ni667       O671   1.899       .  S
Ni667       O669   1.907       .  S
O668       Ni673   1.920       .  S
C670        O671   1.265   1_565  A
C670       C1047   1.492       .  S
O675       Ni681   1.930       .  S
O675        C696   1.271       .  A
O676       Ni699   1.905       .  S
O676        C685   1.266   1_565  A
O677        H700   0.966       .  S
O677       Ni681   1.921       .  S
O677       Ni699   1.914       .  S
O677       Ni693   1.914   1_565  S
C678        O695   1.272       .  A
C678        O687   1.277       .  A
C678        C795   1.490       .  S
O679       Ni698   1.935       .  S
O679        C685   1.273       .  A
O680       Ni698   1.907       .  S
O680        C682   1.268       .  A
Ni681       O684   1.927       .  S
Ni681       O686   1.913       .  S
C682        O692   1.271       .  A
C682        C840   1.478       .  S
O683       Ni699   1.908       .  S
O683        C689   1.271       .  A
O684        C689   1.273       .  A
C685        C980   1.491   1_545  S
O686        C688   1.270       .  A
O687       Ni698   1.929       .  S
C688        O694   1.272       .  A
C688        C851   1.499       .  S
C689        C781   1.477       .  S
H690        O691   0.963       .  S
O691       Ni699   1.909   1_545  S
O691       Ni693   1.906       .  S
O691       Ni698   1.917       .  S
O692       Ni693   1.928       .  S
Ni693       O697   1.899       .  S
Ni693       O695   1.912       .  S
O694       Ni699   1.931       .  S
C696        O697   1.265   1_565  A
C696        C994   1.478       .  S
O701       Ni707   1.937       .  S
O701        C722   1.273       .  A
O702       Ni725   1.904       .  S
O703        H726   0.966       .  S
O703       Ni719   1.905       .  S
C704        O721   1.274       .  A
C704        O713   1.274       .  A
C704        C812   1.481       .  S
O705       Ni724   1.917       .  S
O705        C711   1.267       .  A
O706       Ni724   1.906       .  S
O706        C708   1.268       .  A
Ni707       O710   1.932       .  S
Ni707       O712   1.907       .  S
C708        O718   1.270       .  A
C708        C767   1.483       .  S
O709       Ni725   1.917   1_554  S
O709        C715   1.277   1_554  A
O710        C715   1.279       .  A
C711        C893   1.504       .  S
O712        C714   1.268       .  A
O713       Ni724   1.915       .  S
C714        O720   1.269       .  A
C714        C753   1.486       .  S
C715        C826   1.495       .  S
H716        O717   0.963       .  S
O717       Ni725   1.912       .  S
O718       Ni719   1.916       .  S
Ni719       O723   1.900       .  S
Ni719       O721   1.912       .  S
O720       Ni725   1.925       .  S
O727       Ni733   1.947       .  S
O727        C748   1.275       .  A
O728       Ni751   1.908       .  S
O728        C737   1.266       .  A
O729        H752   0.963       .  S
O729       Ni733   1.912       .  S
O729       Ni751   1.907       .  S
O729       Ni745   1.905       .  S
C730        O747   1.273       .  A
C730        O739   1.274       .  A
C730        C784   1.479       .  S
O731       Ni750   1.927       .  S
O731        C737   1.270       .  A
O732       Ni750   1.908       .  S
O732        C734   1.270       .  A
Ni733       O736   1.936       .  S
Ni733       O738   1.912       .  S
C734        O744   1.271       .  A
C734        C756   1.486       .  S
O735       Ni751   1.916       .  S
O735        C741   1.276       .  A
O736        C741   1.279       .  A
C737        C865   1.483       .  S
O738        C740   1.271       .  A
O739       Ni750   1.923       .  S
C740        O746   1.268       .  A
C740        C770   1.499       .  S
C741        C798   1.491       .  S
H742        O743   0.966       .  S
O743       Ni751   1.917       .  S
O743       Ni745   1.912       .  S
O743       Ni750   1.914       .  S
O744       Ni745   1.923       .  S
Ni745       O749   1.906       .  S
Ni745       O747   1.916       .  S
O746       Ni751   1.917       .  S
C748        O749   1.267       .  A
C748        C882   1.487       .  S
C753        C754   1.415       .  A
C753        C758   1.413       .  A
C754        C755   1.410       .  A
C754        C759   1.450       .  S
C755        C756   1.414       .  A
C755        C762   1.454       .  S
C756        C757   1.415       .  A
C757        C758   1.411       .  A
C757        C760   1.450       .  S
C758        C761   1.453       .  S
C759        N766   1.157       .  T
C760        N765   1.157       .  T
C761        N763   1.157       .  T
C762        N764   1.157       .  T
C767        C768   1.411       .  A
C767        C772   1.411       .  A
C768        C769   1.409       .  A
C768        C773   1.452       .  S
C769        C770   1.418       .  A
C769        C776   1.449       .  S
C770        C771   1.422       .  A
C771        C772   1.410       .  A
C771        C774   1.450       .  S
C772        C775   1.452       .  S
C773        N780   1.157       .  T
C774        N779   1.157       .  T
C775        N777   1.157       .  T
C776        N778   1.156       .  T
C781        C782   1.412       .  A
C781        C786   1.410       .  A
C782        C783   1.411       .  A
C782        C787   1.451       .  S
C783        C784   1.411       .  A
C783        C790   1.451       .  S
C784        C785   1.413       .  A
C785        C786   1.411       .  A
C785        C788   1.451       .  S
C786        C789   1.451       .  S
C787        N794   1.157       .  T
C788        N793   1.157       .  T
C789        N791   1.157       .  T
C790        N792   1.157       .  T
C795        C796   1.415       .  A
C795        C800   1.414       .  A
C796        C797   1.414       .  A
C796        C801   1.451       .  S
C797        C798   1.416       .  A
C797        C804   1.452       .  S
C798        C799   1.412       .  A
C799        C800   1.410       .  A
C799        C802   1.446       .  S
C800        C803   1.453       .  S
C801        N808   1.158       .  T
C802        N807   1.155       .  T
C803        N805   1.157       .  T
C804        N806   1.157       .  T
C809        C810   1.417       .  A
C810        C811   1.410       .  A
C810        C815   1.452       .  S
C811        C818   1.452       .  S
C812        C813   1.413       .  A
C813        C814   1.408       .  A
C813        C816   1.453       .  S
C814        C817   1.453       .  S
C815        N822   1.158       .  T
C816        N821   1.157       .  T
C817        N819   1.157       .  T
C818        N820   1.157       .  T
C823        C824   1.415       .  A
C824        C825   1.413       .  A
C824        C829   1.452       .  S
C825        C832   1.452       .  S
C826        C827   1.415       .  A
C827        C828   1.412       .  A
C827        C830   1.448       .  S
C828        C831   1.453       .  S
C829        N836   1.157       .  T
C830        N835   1.156       .  T
C831        N833   1.157       .  T
C832        N834   1.157       .  T
C837        C838   1.410   1_565  A
C837        C842   1.412       .  A
C838        C839   1.411       .  A
C838        C843   1.451       .  S
C839        C840   1.411       .  A
C839        C846   1.449       .  S
C840        C841   1.411   1_545  A
C841        C842   1.411       .  A
C841        C844   1.451       .  S
C842        C845   1.450       .  S
C843        N850   1.157       .  T
C844        N849   1.157       .  T
C845        N847   1.157       .  T
C846        N848   1.157       .  T
C851        C852   1.418   1_565  A
C851        C856   1.418       .  A
C852        C853   1.412       .  A
C852        C857   1.451       .  S
C853        C854   1.417       .  A
C853        C860   1.454       .  S
C854        C855   1.416   1_545  A
C855        C856   1.415       .  A
C855        C858   1.450       .  S
C856        C859   1.452       .  S
C857        N864   1.157       .  T
C858        N863   1.157       .  T
C859        N861   1.157       .  T
C860        N862   1.157       .  T
C865        C866   1.415       .  A
C865        C870   1.411       .  A
C866        C867   1.411       .  A
C866        C871   1.452       .  S
C867        C868   1.411       .  A
C867        C874   1.450       .  S
C868        C869   1.415       .  A
C869        C870   1.411       .  A
C869        C872   1.452       .  S
C870        C873   1.451       .  S
C871        N878   1.157       .  T
C872        N877   1.157       .  T
C873        N875   1.157       .  T
C874        N876   1.157       .  T
C879        C880   1.411       .  A
C879        C884   1.412       .  A
C880        C881   1.414       .  A
C880        C885   1.449       .  S
C881        C882   1.414       .  A
C881        C888   1.451       .  S
C882        C883   1.412       .  A
C883        C884   1.412       .  A
C883        C886   1.448       .  S
C884        C887   1.452       .  S
C885        N892   1.157       .  T
C886        N891   1.157       .  T
C887        N889   1.157       .  T
C888        N890   1.157       .  T
C893        C898   1.419       .  A
C894        C895   1.411       .  A
C894        C899   1.454       .  S
C895        C902   1.452       .  S
C896        C897   1.423       .  A
C897        C898   1.411       .  A
C897        C900   1.450       .  S
C898        C901   1.454       .  S
C899        N906   1.158       .  T
C900        N905   1.156       .  T
C901        N903   1.158       .  T
C902        N904   1.158       .  T
C907        C908   1.417       .  A
C908        C909   1.411       .  A
C908        C913   1.451       .  S
C909        C910   1.416       .  A
C909        C916   1.454       .  S
C911        C912   1.411       .  A
C911        C914   1.451       .  S
C912        C915   1.453       .  S
C913        N920   1.157       .  T
C914        N919   1.157       .  T
C915        N917   1.158       .  T
C916        N918   1.158       .  T
C921        C922   1.414       .  A
C921        C926   1.418   1_655  A
C922        C923   1.410       .  A
C922        C927   1.452       .  S
C923        C924   1.420   1_655  A
C923        C930   1.450       .  S
C924        C925   1.422       .  A
C925        C926   1.413       .  A
C925        C928   1.453       .  S
C926        C929   1.453       .  S
C927        N934   1.157       .  T
C928        N933   1.157       .  T
C929        N931   1.157       .  T
C930        N932   1.157       .  T
C935        C936   1.411   1_455  A
C935        C940   1.411       .  A
C936        C937   1.409       .  A
C936        C941   1.450       .  S
C937        C938   1.412       .  A
C937        C944   1.452       .  S
C938        C939   1.413   1_655  A
C939        C940   1.410       .  A
C939        C942   1.451       .  S
C940        C943   1.451       .  S
C941        N948   1.157       .  T
C942        N947   1.157       .  T
C943        N945   1.157       .  T
C944        N946   1.157       .  T
C949        C950   1.413   1_655  A
C949        C954   1.412       .  A
C950        C951   1.413       .  A
C950        C955   1.452       .  S
C951        C952   1.417       .  A
C951        C958   1.452       .  S
C952        C953   1.415   1_455  A
C953        C954   1.409       .  A
C953        C956   1.448       .  S
C954        C957   1.453       .  S
C955        N962   1.157       .  T
C956        N961   1.156       .  T
C957        N959   1.157       .  T
C958        N960   1.157       .  T
C963        C964   1.414   1_455  A
C963        C968   1.414       .  A
C964        C965   1.408       .  A
C964        C969   1.452       .  S
C965        C966   1.414       .  A
C965        C972   1.453       .  S
C966        C967   1.414   1_655  A
C967        C968   1.409       .  A
C967        C970   1.452       .  S
C968        C971   1.452       .  S
C969        N976   1.157       .  T
C970        N975   1.157       .  T
C971        N973   1.157       .  T
C972        N974   1.157       .  T
C977        C978   1.416       .  A
C977        C982   1.414   1_565  A
C978        C979   1.413       .  A
C978        C983   1.452       .  S
C979        C980   1.415       .  A
C979        C986   1.451       .  S
C980        C981   1.415   1_565  A
C981        C982   1.412       .  A
C981        C984   1.453       .  S
C982        C985   1.449       .  S
C983        N990   1.157       .  T
C984        N989   1.157       .  T
C985        N987   1.156       .  T
C986        N988   1.157       .  T
C991        C992   1.412   1_565  A
C991        C996   1.410       .  A
C992        C993   1.410       .  A
C992        C997   1.452       .  S
C993        C994   1.411   1_545  A
C993       C1000   1.451       .  S
C994        C995   1.413       .  A
C995        C996   1.410       .  A
C995        C998   1.451       .  S
C996        C999   1.451       .  S
C997       N1004   1.157       .  T
C998       N1003   1.157       .  T
C999       N1001   1.157       .  T
C1000      N1002   1.157       .  T
C1005      C1006   1.417       .  A
C1006      C1007   1.412       .  A
C1006      C1011   1.453       .  S
C1007      C1014   1.453       .  S
C1008      C1009   1.416       .  A
C1009      C1010   1.413       .  A
C1009      C1012   1.452       .  S
C1010      C1013   1.452       .  S
C1011      N1018   1.157       .  T
C1012      N1017   1.157       .  T
C1013      N1015   1.158       .  T
C1014      N1016   1.158       .  T
C1019      C1024   1.411   1_455  A
C1020      C1021   1.409       .  A
C1020      C1025   1.452       .  S
C1021      C1022   1.410   1_455  A
C1021      C1028   1.449       .  S
C1023      C1024   1.411       .  A
C1023      C1026   1.451       .  S
C1024      C1027   1.451       .  S
C1025      N1032   1.157       .  T
C1026      N1031   1.157       .  T
C1027      N1029   1.157       .  T
C1028      N1030   1.156       .  T
C1033      C1038   1.417   1_565  A
C1034      C1035   1.413       .  A
C1034      C1039   1.451       .  S
C1035      C1042   1.453       .  S
C1036      C1037   1.414   1_565  A
C1037      C1038   1.411       .  A
C1037      C1040   1.449       .  S
C1038      C1041   1.453       .  S
C1039      N1046   1.157       .  T
C1040      N1045   1.156       .  T
C1041      N1043   1.158       .  T
C1042      N1044   1.157       .  T
C1047      C1052   1.417       .  A
C1048      C1049   1.411       .  A
C1048      C1053   1.452       .  S
C1049      C1056   1.453       .  S
C1050      C1051   1.415   1_545  A
C1051      C1052   1.410       .  A
C1051      C1054   1.453       .  S
C1052      C1055   1.452       .  S
C1053      N1060   1.158       .  T
C1054      N1059   1.157       .  T
C1055      N1057   1.157       .  T
C1056      N1058   1.157       .  T
C1061      C1062   1.413   1_565  A
C1061      C1066   1.413   1_655  A
C1062      C1063   1.412       .  A
C1062      C1067   1.451       .  S
C1063      C1064   1.415   1_655  A
C1063      C1070   1.452       .  S
C1064      C1065   1.414   1_545  A
C1065      C1066   1.411       .  A
C1065      C1068   1.452       .  S
C1066      C1069   1.452       .  S
C1067      N1074   1.157       .  T
C1068      N1073   1.157       .  T
C1069      N1071   1.157       .  T
C1070      N1072   1.158       .  T
C1075      C1076   1.412   1_665  A
C1075      C1080   1.412       .  A
C1076      C1077   1.412       .  A
C1076      C1081   1.449       .  S
C1077      C1078   1.413       .  A
C1077      C1084   1.452       .  S
C1078      C1079   1.413   1_445  A
C1079      C1080   1.411       .  A
C1079      C1082   1.451       .  S
C1080      C1083   1.452       .  S
C1081      N1088   1.157       .  T
C1082      N1087   1.157       .  T
C1083      N1085   1.157       .  T
C1084      N1086   1.157       .  T
