geometry optimzed in LAMMPS
_audit_creation_date              2020-12-01 
_audit_creation_method            'lammps2cif' 
_symmetry_space_group_name_H-M    'P1' 
_symmetry_Int_Tables_number       1 
_symmetry_cell_setting            triclinic 
loop_ 
_symmetry_equiv_pos_as_xyz 
  x,y,z 
_cell_length_a                    23.53419731 
_cell_length_b                    23.362155624620385 
_cell_length_c                    39.971812513287475 
_cell_angle_alpha                 87.30730090642749 
_cell_angle_beta                  88.86282791430412 
_cell_angle_gamma                 94.95153061344972 
loop_ 
_atom_site_label 
_atom_site_type_symbol 
_atom_site_fract_x 
_atom_site_fract_y 
_atom_site_fract_z 
_atom_site_charge 
C1          C  0.25517744  0.33846141  0.41433298    -0.02800
C2          C  0.37577232  0.22344744  0.31630026    -0.02800
C3          C  0.23944974  0.10045740  0.41943136    -0.02800
C4          C  0.12284666  0.21275805  0.31798225    -0.02800
C5          C  0.38615880  0.21786466  0.16055704    -0.02800
C6          C  0.25197407  0.32522284  0.06421720    -0.02800
C7          C  0.12920715  0.20879201  0.16568588    -0.02800
C8          C  0.26169497  0.08282226  0.07552697    -0.02800
O9          O  0.29766711  0.40723131  0.45786630    -0.72100
O10         O  0.29889169  0.02864498  0.02456190    -0.72300
O11         O  0.29784466  0.41138449  0.02877670    -0.72200
O12         O  0.28970612  0.02300007  0.45207314    -0.72200
O13         O  0.20140071  0.02686464  0.46482867    -0.72100
O14         O  0.20882121  0.38904167  0.02191566    -0.72200
O15         O  0.21145273  0.00338615  0.03642516    -0.72100
O16         O  0.20791785  0.41184359  0.45223935    -0.72300
V17         V  0.29501829  0.46783409  0.49079396     1.35200
V18         V  0.20841683  0.45822366  0.49383304     1.35200
C19         C  0.25363417  0.39023526  0.44153828     0.77100
C20         C  0.25731605  0.03360276  0.04536893     0.77200
C21         C  0.25293590  0.37845947  0.03765108     0.77100
C22         C  0.24303144  0.04579916  0.44547478     0.77000
O23         O  0.43504604  0.17619001  0.27500424    -0.72100
O24         O  0.05874161  0.16618221  0.21009551    -0.72300
O25         O  0.05006777  0.16840745  0.27938905    -0.72200
O26         O  0.44492609  0.17530821  0.20546585    -0.72200
O27         O  0.45229949  0.26735992  0.20371930    -0.72100
O28         O  0.06691412  0.26059178  0.27381750    -0.72200
O29         O  0.06836137  0.25871781  0.20489428    -0.72100
O30         O  0.45198570  0.26826027  0.27494111    -0.72300
V31         V  0.99717980  0.17339927  0.24248174     1.35200
V32         V  0.00955072  0.26210180  0.23936778     1.35200
C33         C  0.42370361  0.22306167  0.28769158     0.77100
C34         C  0.08432215  0.21096279  0.19551270     0.77200
C35         C  0.07765054  0.21376657  0.28916735     0.77100
C36         C  0.43021433  0.22144654  0.19112606     0.77000
C37         C  0.20076865  0.07879122  0.14307759    -0.02200
C38         C  0.20454939  0.08168752  0.10524122     0.07500
C39         C  0.14543242  0.08761071  0.09679331    -0.02300
C40         C  0.10715313  0.12263391  0.11638069    -0.02300
C41         C  0.12393414  0.14410908  0.14834265     0.07600
C42         C  0.15387257  0.10002071  0.16200215    -0.01900
Br43       Br  0.10224984  0.04664319  0.19063674    -0.01000
Br44       Br  0.22755735  0.02605117  0.17627244    -0.01100
Br45       Br  0.03148462  0.08513228  0.12393123    -0.01100
Br46       Br  0.11084646  0.01487579  0.08144688    -0.01000
C47         C  0.20570253  0.15974701  0.04190681    -0.02200
C48         C  0.25964774  0.14300559  0.05038369     0.07500
C49         C  0.30178026  0.18617287  0.03254831    -0.02300
C50         C  0.28793238  0.24559254  0.02718333    -0.02300
C51         C  0.24089779  0.26472915  0.04345726     0.07600
C52         C  0.19354308  0.21909158  0.04161769    -0.02500
Br53       Br  0.11196119  0.22355748  0.03862659    -0.01000
Br54       Br  0.15490878  0.10301955  0.02227164    -0.01100
Br55       Br  0.33478207  0.30780793  0.00423243    -0.01100
Br56       Br  0.38346571  0.18545479  0.02775674    -0.01000
C57         C  0.15969601  0.32398128  0.14891475    -0.02200
C58         C  0.12494995  0.27105356  0.14323604     0.07500
C59         C  0.10247159  0.27916608  0.11113390    -0.02300
C60         C  0.13788961  0.31099288  0.08458774    -0.02300
C61         C  0.19698470  0.32746475  0.09027585     0.07600
C62         C  0.19829865  0.34985876  0.12213405    -0.02500
Br63       Br  0.21468785  0.43011564  0.11761730    -0.01000
Br64       Br  0.13282442  0.37332019  0.18181813    -0.01100
Br65       Br  0.09979004  0.35923715  0.05299785    -0.01100
Br66       Br  0.02799404  0.30307509  0.11820151    -0.01000
C67         C  0.22502225  0.18106965  0.20109712    -0.02200
C68         C  0.19444292  0.21416495  0.17734652     0.07500
C69         C  0.23120686  0.23857177  0.15292961    -0.02300
C70         C  0.28549024  0.26002255  0.16032994    -0.02300
C71         C  0.32061625  0.21994689  0.17480567     0.07600
C72         C  0.28751705  0.18088682  0.19824557    -0.02500
Br73       Br  0.32565936  0.13199906  0.22715466    -0.01000
Br74       Br  0.18254770  0.13293667  0.23381960    -0.01100
Br75       Br  0.28180702  0.33401510  0.17954176    -0.01100
Br76       Br  0.21033628  0.21072643  0.11205726    -0.01000
C77         C  0.36381978  0.10209951  0.15547281    -0.02200
C78         C  0.39351942  0.15372546  0.14294477     0.07500
C79         C  0.41553465  0.14073025  0.10944311    -0.02300
C80         C  0.38065217  0.10192196  0.08809674    -0.02300
C81         C  0.32284960  0.08165480  0.09814277     0.07600
C82         C  0.32744167  0.06739147  0.13351853    -0.02500
Br83       Br  0.33234241  0.98719367  0.14437074    -0.01000
Br84       Br  0.41243386  0.06202459  0.18656128    -0.01100
Br85       Br  0.41843690  0.06304481  0.05361729    -0.01100
Br86       Br  0.47882510  0.18555445  0.08679195    -0.01000
C87         C  0.38118557  0.33274413  0.13372708    -0.02200
C88         C  0.39243002  0.27225386  0.13143310     0.07500
C89         C  0.38230923  0.25823991  0.09855042    -0.02300
C90         C  0.36504919  0.29517647  0.07350801    -0.02300
C91         C  0.31820541  0.32816044  0.08240260     0.07600
C92         C  0.34469082  0.36129639  0.10834632    -0.02500
Br93       Br  0.38190937  0.42992744  0.08625487    -0.01000
Br94       Br  0.42340672  0.37802728  0.16525955    -0.01100
Br95       Br  0.43674487  0.32813612  0.05192623    -0.01100
Br96       Br  0.32650722  0.20771427  0.09786400    -0.01000
C97         C  0.15307965  0.10361675  0.33299853    -0.02200
C98         C  0.11723468  0.14753467  0.33956025     0.07500
C99         C  0.08906524  0.12513498  0.37064971    -0.02300
C100        C  0.12261533  0.09934400  0.39821038    -0.02300
C101        C  0.18359027  0.09518428  0.39332607     0.07600
C102        C  0.18943490  0.08263503  0.35929425    -0.02500
Br103      Br  0.20713047  0.00793449  0.35742377    -0.01000
Br104      Br  0.12547068  0.05312533  0.29870327    -0.01100
Br105      Br  0.08416007  0.04440136  0.43050797    -0.01100
Br106      Br  0.02348387  0.07619865  0.35870475    -0.01000
C107        C  0.27421127  0.17346232  0.31499053    -0.02200
C108        C  0.31477435  0.21017357  0.29839132     0.07500
C109        C  0.28666113  0.24042101  0.27126838    -0.02300
C110        C  0.22176014  0.23848025  0.27029351    -0.02300
C111        C  0.18790016  0.21475368  0.30077368     0.07600
C112        C  0.22607085  0.20088802  0.32409735    -0.02500
Br113      Br  0.23601020  0.28044673  0.33158172    -0.01000
Br114      Br  0.26455219  0.09931937  0.29602462    -0.01100
Br115      Br  0.18723871  0.29278019  0.24275693    -0.01100
Br116      Br  0.33548217  0.29261370  0.24481279    -0.01000
C117        C  0.32527561  0.07821926  0.36936090    -0.02200
C118        C  0.29992071  0.11162812  0.39467950     0.07500
C119        C  0.33468963  0.16386505  0.39446637    -0.02300
C120        C  0.38716841  0.17613577  0.37799257    -0.02300
C121        C  0.38452272  0.16804722  0.34352376     0.07600
C122        C  0.36289710  0.10747504  0.34184191    -0.02500
Br123      Br  0.39698867  0.06171856  0.30938218    -0.01000
Br124      Br  0.33773238  0.00062219  0.38209832    -0.01100
Br125      Br  0.44021149  0.13701783  0.40387818    -0.01100
Br126      Br  0.29864629  0.21993316  0.38210308    -0.01000
C127        C  0.30636604  0.24018543  0.44873808    -0.02200
C128        C  0.26014463  0.27892767  0.44077228     0.07500
C129        C  0.20994915  0.25293340  0.45856537    -0.02300
C130        C  0.19607671  0.19062630  0.45822494    -0.02300
C131        C  0.23915247  0.15476949  0.44554517     0.07600
C132        C  0.29198047  0.17910666  0.45596700    -0.02500
Br133      Br  0.34842825  0.12509503  0.46615340    -0.01000
Br134      Br  0.38991056  0.25480975  0.44524555    -0.01100
Br135      Br  0.11437902  0.16894235  0.46085321    -0.01100
Br136      Br  0.15322120  0.30181598  0.47372173    -0.01000
C137        C  0.16395436  0.36126679  0.36730546    -0.02200
C138        C  0.19154407  0.32929287  0.39376627     0.07500
C139        C  0.15167849  0.28168864  0.40038752    -0.02300
C140        C  0.11043972  0.25631192  0.37861363    -0.02300
C141        C  0.11390347  0.26842741  0.34333513     0.07600
C142        C  0.13325782  0.33034677  0.33976684    -0.02500
Br143      Br  0.11614675  0.37497050  0.30051581    -0.01000
Br144      Br  0.11349799  0.41178326  0.38668592    -0.01100
Br145      Br  0.03894466  0.23855321  0.40102612    -0.01100
Br146      Br  0.17503014  0.21527044  0.39230356    -0.01000
C147        C  0.36905368  0.33512147  0.39102495    -0.02200
C148        C  0.31136363  0.34797946  0.38516446     0.07500
C149        C  0.31568950  0.36595351  0.34909328    -0.02300
C150        C  0.35063350  0.33746156  0.32499736    -0.02300
C151        C  0.37739710  0.28748045  0.33530470     0.07600
C152        C  0.40188968  0.30381489  0.36651424    -0.02500
Br153      Br  0.47950879  0.33311333  0.35819661    -0.01000
Br154      Br  0.41013462  0.38781316  0.41989668    -0.01100
Br155      Br  0.39321261  0.38849630  0.29219804    -0.01100
Br156      Br  0.27091858  0.41653298  0.32472131    -0.01000
C157        C  0.25518921  0.33845851  0.91433409    -0.02800
C158        C  0.37579069  0.22344719  0.81630203    -0.02800
C159        C  0.23946077  0.10045457  0.91943073    -0.02800
C160        C  0.12286456  0.21275927  0.81798031    -0.02800
C161        C  0.38617698  0.21786894  0.66055479    -0.02800
C162        C  0.25198867  0.32522734  0.56421595    -0.02800
C163        C  0.12922556  0.20879686  0.66568568    -0.02800
C164        C  0.26171071  0.08282716  0.57552515    -0.02800
O165        O  0.29767115  0.40722844  0.95786978    -0.72100
O166        O  0.29889988  0.02864936  0.52455807    -0.72300
O167        O  0.29785449  0.41138891  0.52877308    -0.72200
O168        O  0.28971137  0.02299664  0.95207624    -0.72200
O169        O  0.20140378  0.02686194  0.96482608    -0.72100
O170        O  0.20883011  0.38904431  0.52191631    -0.72200
O171        O  0.21146324  0.00338888  0.53642692    -0.72100
O172        O  0.20792297  0.41184030  0.95223795    -0.72300
V173        V  0.29501593  0.46783044  0.99079744     1.35200
V174        V  0.20841418  0.45822083  0.99383146     1.35200
C175        C  0.25364116  0.39023216  0.94153942     0.77100
C176        C  0.25732776  0.03360680  0.54536762     0.77200
C177        C  0.25294730  0.37846314  0.53764953     0.77100
C178        C  0.24303809  0.04579618  0.94547467     0.77000
O179        O  0.43506378  0.17619113  0.77500418    -0.72100
O180        O  0.05875867  0.16618579  0.71009409    -0.72300
O181        O  0.05008567  0.16840916  0.77938729    -0.72200
O182        O  0.44494307  0.17531174  0.70546463    -0.72200
O183        O  0.45231665  0.26736340  0.70371857    -0.72100
O184        O  0.06693145  0.26059369  0.77381659    -0.72200
O185        O  0.06837865  0.25872143  0.70489400    -0.72100
O186        O  0.45200287  0.26826138  0.77494167    -0.72300
V187        V  0.99719701  0.17340177  0.74248057     1.35200
V188        V  0.00956762  0.26210422  0.73936736     1.35200
C189        C  0.42372177  0.22306225  0.78769257     0.77100
C190        C  0.08433997  0.21096676  0.69551216     0.77200
C191        C  0.07766870  0.21376812  0.78916560     0.77100
C192        C  0.43023210  0.22145033  0.69112455     0.77000
C193        C  0.20078662  0.07879698  0.64307620    -0.02200
C194        C  0.20456633  0.08169322  0.60523986     0.07500
C195        C  0.14544922  0.08761702  0.59679241    -0.02300
C196        C  0.10717109  0.12264092  0.61638002    -0.02300
C197        C  0.12395267  0.14411479  0.64834204     0.07600
C198        C  0.15389122  0.10002627  0.66200118    -0.01900
Br199      Br  0.10226910  0.04664696  0.69063502    -0.01000
Br200      Br  0.22757870  0.02606012  0.67627169    -0.01100
Br201      Br  0.03150179  0.08514220  0.62393098    -0.01100
Br202      Br  0.11086127  0.01488212  0.58144731    -0.01000
C203        C  0.20571827  0.15975161  0.54190543    -0.02200
C204        C  0.25966365  0.14301053  0.55038169     0.07500
C205        C  0.30179580  0.18617857  0.53254634    -0.02300
C206        C  0.28794706  0.24559800  0.52718149    -0.02300
C207        C  0.24091264  0.26473365  0.54345621     0.07600
C208        C  0.19355834  0.21909574  0.54161697    -0.02500
Br209      Br  0.11197601  0.22355969  0.53863006    -0.01000
Br210      Br  0.15492414  0.10302438  0.52227040    -0.01100
Br211      Br  0.33479559  0.30781371  0.50422980    -0.01100
Br212      Br  0.38348133  0.18545987  0.52775243    -0.01000
C213        C  0.15971453  0.32398568  0.64891488    -0.02200
C214        C  0.12496817  0.27105822  0.64323619     0.07500
C215        C  0.10248844  0.27917055  0.61113453    -0.02300
C216        C  0.13790476  0.31099867  0.58458831    -0.02300
C217        C  0.19700044  0.32746980  0.59027547     0.07600
C218        C  0.19831612  0.34986342  0.62213386    -0.02500
Br219      Br  0.21470350  0.43012074  0.61761751    -0.01000
Br220      Br  0.13284528  0.37332352  0.68181959    -0.01100
Br221      Br  0.09980213  0.35924199  0.55299963    -0.01100
Br222      Br  0.02800913  0.30307410  0.61820275    -0.01000
C223        C  0.22504112  0.18107361  0.70109614    -0.02200
C224        C  0.19446154  0.21416962  0.67734602     0.07500
C225        C  0.23122513  0.23857669  0.65292904    -0.02300
C226        C  0.28550871  0.26002685  0.66032906    -0.02300
C227        C  0.32063465  0.21995045  0.67480394     0.07600
C228        C  0.28753578  0.18089021  0.69824399    -0.02500
Br229      Br  0.32567772  0.13200092  0.72715248    -0.01000
Br230      Br  0.18256662  0.13294049  0.73381849    -0.01100
Br231      Br  0.28182674  0.33401878  0.67954174    -0.01100
Br232      Br  0.21035407  0.21073236  0.61205653    -0.01000
C233        C  0.36383849  0.10210384  0.65546977    -0.02200
C234        C  0.39353767  0.15373000  0.64294178     0.07500
C235        C  0.41555172  0.14073491  0.60943959    -0.02300
C236        C  0.38066823  0.10192699  0.58809334    -0.02300
C237        C  0.32286631  0.08165911  0.59814006     0.07600
C238        C  0.32745982  0.06739578  0.63351574    -0.02500
Br239      Br  0.33236022  0.98719813  0.64436806    -0.01000
Br240      Br  0.41245333  0.06202902  0.68655776    -0.01100
Br241      Br  0.41845098  0.06304972  0.55361306    -0.01100
Br242      Br  0.47884051  0.18555928  0.58678696    -0.01000
C243        C  0.38120227  0.33274901  0.63372457    -0.02200
C244        C  0.39244680  0.27225866  0.63143075     0.07500
C245        C  0.38232539  0.25824495  0.59854797    -0.02300
C246        C  0.36506430  0.29518114  0.57350555    -0.02300
C247        C  0.31822081  0.32816534  0.58240042     0.07600
C248        C  0.34470672  0.36130107  0.60834403    -0.02500
Br249      Br  0.38192344  0.42993192  0.58625135    -0.01000
Br250      Br  0.42342424  0.37803255  0.66525655    -0.01100
Br251      Br  0.43676005  0.32814051  0.55192348    -0.01100
Br252      Br  0.32652422  0.20771886  0.59786174    -0.01000
C253        C  0.15309648  0.10361809  0.83299610    -0.02200
C254        C  0.11725160  0.14753592  0.83955766     0.07500
C255        C  0.08908000  0.12513640  0.87064625    -0.02300
C256        C  0.12262747  0.09934291  0.89820724    -0.02300
C257        C  0.18360269  0.09518228  0.89332432     0.07600
C258        C  0.18945006  0.08263541  0.85929228    -0.02500
Br259      Br  0.20714631  0.00793544  0.85742074    -0.01000
Br260      Br  0.12548778  0.05312718  0.79870051    -0.01100
Br261      Br  0.08416816  0.04440027  0.93050320    -0.01100
Br262      Br  0.02349572  0.07620714  0.85869948    -0.01000
C263        C  0.27422931  0.17346322  0.81499039    -0.02200
C264        C  0.31479316  0.21017490  0.79839218     0.07500
C265        C  0.28668097  0.24042275  0.77126878    -0.02300
C266        C  0.22177997  0.23848196  0.77029304    -0.02300
C267        C  0.18791876  0.21475495  0.80077261     0.07600
C268        C  0.22608865  0.20088899  0.82409666    -0.02500
Br269      Br  0.23602791  0.28044744  0.83158177    -0.01000
Br270      Br  0.26457055  0.09932152  0.79602313    -0.01100
Br271      Br  0.18725876  0.29278239  0.74275685    -0.01100
Br272      Br  0.33550216  0.29261533  0.74481297    -0.01000
C273        C  0.32528965  0.07821756  0.86936171    -0.02200
C274        C  0.29993377  0.11162598  0.89468003     0.07500
C275        C  0.33470358  0.16386275  0.89446756    -0.02300
C276        C  0.38718331  0.17613322  0.87799462    -0.02300
C277        C  0.38453919  0.16804563  0.84352544     0.07600
C278        C  0.36291231  0.10747355  0.84184308    -0.02500
Br279      Br  0.39700326  0.06171680  0.80938314    -0.01000
Br280      Br  0.33774699  0.00062132  0.88210096    -0.01100
Br281      Br  0.44022493  0.13701437  0.90388138    -0.01100
Br282      Br  0.29866218  0.21993174  0.88210353    -0.01000
C283        C  0.30637604  0.24018073  0.94873899    -0.02200
C284        C  0.26015499  0.27892356  0.94077276     0.07500
C285        C  0.20995894  0.25292911  0.95856510    -0.02300
C286        C  0.19608641  0.19062226  0.95822417    -0.02300
C287        C  0.23916279  0.15476579  0.94554474     0.07600
C288        C  0.29199050  0.17910196  0.95596738    -0.02500
Br289      Br  0.34843875  0.12508991  0.96615388    -0.01000
Br290      Br  0.38992022  0.25480788  0.94525206    -0.01100
Br291      Br  0.11438872  0.16893993  0.96084939    -0.01100
Br292      Br  0.15323040  0.30181124  0.97372093    -0.01000
C293        C  0.16397014  0.36126600  0.86730532    -0.02200
C294        C  0.19155776  0.32929041  0.89376604     0.07500
C295        C  0.15169213  0.28168589  0.90038607    -0.02300
C296        C  0.11045373  0.25631148  0.87861148    -0.02300
C297        C  0.11392010  0.26842793  0.84333333     0.07600
C298        C  0.13327489  0.33034724  0.83976590    -0.02500
Br299      Br  0.11616591  0.37497260  0.80051503    -0.01000
Br300      Br  0.11351579  0.41178404  0.88668585    -0.01100
Br301      Br  0.03895797  0.23854956  0.90102204    -0.01100
Br302      Br  0.17504607  0.21526894  0.89230204    -0.01000
C303        C  0.36906722  0.33511837  0.89102888    -0.02200
C304        C  0.31137782  0.34797728  0.88516697     0.07500
C305        C  0.31570674  0.36595237  0.84909591    -0.02300
C306        C  0.35065213  0.33746097  0.82500037    -0.02300
C307        C  0.37741583  0.28748001  0.83530756     0.07600
C308        C  0.40190596  0.30381385  0.86651827    -0.02500
Br309      Br  0.47952335  0.33312088  0.85820205    -0.01000
Br310      Br  0.41014370  0.38780909  0.91990325    -0.01100
Br311      Br  0.39323107  0.38849522  0.79220072    -0.01100
Br312      Br  0.27093792  0.41653256  0.82472328    -0.01000
C313        C  0.25517295  0.83846135  0.41433222    -0.02800
C314        C  0.37576664  0.72344442  0.31629980    -0.02800
C315        C  0.23944577  0.60045710  0.41943203    -0.02800
C316        C  0.12284099  0.71275461  0.31798265    -0.02800
C317        C  0.38615402  0.71786232  0.16055709    -0.02800
C318        C  0.25196994  0.82522218  0.06421717    -0.02800
C319        C  0.12920213  0.70878954  0.16568546    -0.02800
C320        C  0.26169213  0.58282216  0.07552626    -0.02800
O321        O  0.29766444  0.90723009  0.45786595    -0.72100
O322        O  0.29888984  0.52864629  0.02456169    -0.72300
O323        O  0.29784232  0.91138297  0.02877662    -0.72200
O324        O  0.28970438  0.52300093  0.45207357    -0.72200
O325        O  0.20139856  0.52686280  0.46482891    -0.72100
O326        O  0.20881831  0.88904267  0.02191567    -0.72200
O327        O  0.21145148  0.50338468  0.03642525    -0.72100
O328        O  0.20791557  0.91184485  0.45223917    -0.72300
V329        V  0.29501785  0.96783290  0.49079376     1.35200
V330        V  0.20841641  0.95822513  0.49383298     1.35200
C331        C  0.25363104  0.89023544  0.44153781     0.77100
C332        C  0.25731400  0.53360282  0.04536862     0.77200
C333        C  0.25293271  0.87845916  0.03765106     0.77100
C334        C  0.24302898  0.54579887  0.44547530     0.77000
O335        O  0.43504098  0.67618655  0.27500414    -0.72100
O336        O  0.05873629  0.66617894  0.21009506    -0.72300
O337        O  0.05006265  0.66840350  0.27938895    -0.72200
O338        O  0.44492063  0.67530497  0.20546583    -0.72200
O339        O  0.45229487  0.76735688  0.20371920    -0.72100
O340        O  0.06690856  0.76058792  0.27381775    -0.72200
O341        O  0.06835650  0.75871454  0.20489443    -0.72100
O342        O  0.45198021  0.76825699  0.27494079    -0.72300
V343        V  0.99717467  0.67339568  0.24248161     1.35200
V344        V  0.00954555  0.76209816  0.23936780     1.35200
C345        C  0.42369819  0.72305835  0.28769128     0.77100
C346        C  0.08431696  0.71095967  0.19551237     0.77200
C347        C  0.07764506  0.71376274  0.28916755     0.77100
C348        C  0.43020923  0.72144358  0.19112614     0.77000
C349        C  0.20076439  0.57878974  0.14307648    -0.02200
C350        C  0.20454598  0.58168701  0.10524013     0.07500
C351        C  0.14542915  0.58761046  0.09679180    -0.02300
C352        C  0.10714918  0.62263265  0.11637946    -0.02300
C353        C  0.12392951  0.64410716  0.14834170     0.07600
C354        C  0.15386803  0.60001866  0.16200103    -0.01900
Br355      Br  0.10224535  0.54663969  0.19063481    -0.01000
Br356      Br  0.22755425  0.52605073  0.17627148    -0.01100
Br357      Br  0.03148082  0.58512978  0.12392947    -0.01100
Br358      Br  0.11084283  0.51487662  0.08144390    -0.01000
C359        C  0.20570007  0.65974661  0.04190606    -0.02200
C360        C  0.25964527  0.64300547  0.05038282     0.07500
C361        C  0.30177790  0.68617349  0.03254813    -0.02300
C362        C  0.28792932  0.74559276  0.02718300    -0.02300
C363        C  0.24089445  0.76472879  0.04345707     0.07600
C364        C  0.19354005  0.71909103  0.04161713    -0.02500
Br365      Br  0.11195810  0.72355637  0.03862658    -0.01000
Br366      Br  0.15490828  0.60301904  0.02226970    -0.01100
Br367      Br  0.33477935  0.80780810  0.00423229    -0.01100
Br368      Br  0.38346359  0.68545627  0.02775692    -0.01000
C369        C  0.15969138  0.82397900  0.14891488    -0.02200
C370        C  0.12494516  0.77105163  0.14323582     0.07500
C371        C  0.10246692  0.77916536  0.11113367    -0.02300
C372        C  0.13788524  0.81099248  0.08458768    -0.02300
C373        C  0.19698039  0.82746410  0.09027581     0.07600
C374        C  0.19829487  0.84985622  0.12213456    -0.02500
Br375      Br  0.21469324  0.93011214  0.11762076    -0.01000
Br376      Br  0.13281955  0.87331792  0.18181818    -0.01100
Br377      Br  0.09978651  0.85923684  0.05299762    -0.01100
Br378      Br  0.02798985  0.80307574  0.11820149    -0.01000
C379        C  0.22501707  0.68106602  0.20109672    -0.02200
C380        C  0.19443792  0.71416200  0.17734633     0.07500
C381        C  0.23120198  0.73856957  0.15292973    -0.02300
C382        C  0.28548537  0.76002007  0.16033025    -0.02300
C383        C  0.32061134  0.71994394  0.17480572     0.07600
C384        C  0.28751181  0.68088294  0.19824510    -0.02500
Br385      Br  0.32565326  0.63199296  0.22715354    -0.01000
Br386      Br  0.18254217  0.63293256  0.23381902    -0.01100
Br387      Br  0.28180262  0.83401267  0.17954208    -0.01100
Br388      Br  0.21033139  0.71072578  0.11205690    -0.01000
C389        C  0.36381623  0.60209723  0.15547198    -0.02200
C390        C  0.39351569  0.65372370  0.14294447     0.07500
C391        C  0.41553119  0.64072957  0.10944277    -0.02300
C392        C  0.38064905  0.60192175  0.08809596    -0.02300
C393        C  0.32284658  0.58165396  0.09814186     0.07600
C394        C  0.32743821  0.56738986  0.13351740    -0.02500
Br395      Br  0.33233740  0.48719147  0.14436827    -0.01000
Br396      Br  0.41243047  0.56202106  0.18655954    -0.01100
Br397      Br  0.41843405  0.56304596  0.05361605    -0.01100
Br398      Br  0.47882167  0.68555491  0.08679247    -0.01000
C399        C  0.38118103  0.83274235  0.13372739    -0.02200
C400        C  0.39242508  0.77225200  0.13143336     0.07500
C401        C  0.38230413  0.75823838  0.09855061    -0.02300
C402        C  0.36504468  0.79517544  0.07350826    -0.02300
C403        C  0.31820068  0.82815889  0.08240297     0.07600
C404        C  0.34468603  0.86129468  0.10834670    -0.02500
Br405      Br  0.38190119  0.92992665  0.08625487    -0.01000
Br406      Br  0.42340423  0.87802539  0.16525909    -0.01100
Br407      Br  0.43674056  0.82813666  0.05192706    -0.01100
Br408      Br  0.32650232  0.70771253  0.09786442    -0.01000
C409        C  0.15307414  0.60361381  0.33299961    -0.02200
C410        C  0.11722907  0.64753165  0.33956117     0.07500
C411        C  0.08906022  0.62513262  0.37065102    -0.02300
C412        C  0.12261101  0.59934255  0.39821164    -0.02300
C413        C  0.18358589  0.59518285  0.39332702     0.07600
C414        C  0.18942993  0.58263265  0.35929525    -0.02500
Br415      Br  0.20712600  0.50793202  0.35742493    -0.01000
Br416      Br  0.12546566  0.55312244  0.29870424    -0.01100
Br417      Br  0.08415689  0.54440095  0.43051019    -0.01100
Br418      Br  0.02347960  0.57619442  0.35870676    -0.01000
C419        C  0.27420580  0.67345853  0.31499077    -0.02200
C420        C  0.31476852  0.71016957  0.29839120     0.07500
C421        C  0.28665507  0.74041621  0.27126811    -0.02300
C422        C  0.22175401  0.73847538  0.27029340    -0.02300
C423        C  0.18789448  0.71474972  0.30077392     0.07600
C424        C  0.22606540  0.70088429  0.32409757    -0.02500
Br425      Br  0.23600434  0.78044324  0.33158122    -0.01000
Br426      Br  0.26454642  0.59931574  0.29602463    -0.01100
Br427      Br  0.18723234  0.79277541  0.24275685    -0.01100
Br428      Br  0.33547613  0.79260837  0.24481247    -0.01000
C429        C  0.32527043  0.57821793  0.36936186    -0.02200
C430        C  0.29991607  0.61162783  0.39467997     0.07500
C431        C  0.33468520  0.66386464  0.39446647    -0.02300
C432        C  0.38716362  0.67613490  0.37799226    -0.02300
C433        C  0.38451725  0.66804499  0.34352370     0.07600
C434        C  0.36289140  0.60747266  0.34184242    -0.02500
Br435      Br  0.39698282  0.56171491  0.30938318    -0.01000
Br436      Br  0.33772941  0.50062240  0.38210152    -0.01100
Br437      Br  0.44020761  0.63701852  0.40387790    -0.01100
Br438      Br  0.29864111  0.71993206  0.38210301    -0.01000
C439        C  0.30636174  0.74018614  0.44873788    -0.02200
C440        C  0.26014020  0.77892792  0.44077177     0.07500
C441        C  0.20994501  0.75293404  0.45856517    -0.02300
C442        C  0.19607244  0.69062696  0.45822503    -0.02300
C443        C  0.23914841  0.65476975  0.44554556     0.07600
C444        C  0.29197646  0.67910746  0.45596718    -0.02500
Br445      Br  0.34842487  0.62509660  0.46615360    -0.01000
Br446      Br  0.38990597  0.75481087  0.44524463    -0.01100
Br447      Br  0.11437438  0.66894379  0.46085343    -0.01100
Br448      Br  0.15321747  0.80181714  0.47372167    -0.01000
C449        C  0.16394974  0.86126513  0.36730407    -0.02200
C450        C  0.19153910  0.82929232  0.39376564     0.07500
C451        C  0.15167348  0.78168823  0.40038733    -0.02300
C452        C  0.11043462  0.75631054  0.37861379    -0.02300
C453        C  0.11389802  0.76842487  0.34333504     0.07600
C454        C  0.13325242  0.83034406  0.33976604    -0.02500
Br455      Br  0.11613843  0.87496690  0.30051509    -0.01000
Br456      Br  0.11349753  0.91178757  0.38668220    -0.01100
Br457      Br  0.03893967  0.73855381  0.40102660    -0.01100
Br458      Br  0.17502486  0.71526938  0.39230374    -0.01000
C459        C  0.36904908  0.83512108  0.39102328    -0.02200
C460        C  0.31135862  0.84797865  0.38516325     0.07500
C461        C  0.31568329  0.86595112  0.34909179    -0.02300
C462        C  0.35062710  0.83745869  0.32499601    -0.02300
C463        C  0.37739103  0.78747799  0.33530362     0.07600
C464        C  0.40188441  0.80381360  0.36651273    -0.02500
Br465      Br  0.47950345  0.83311120  0.35819416    -0.01000
Br466      Br  0.41013084  0.88781312  0.41989441    -0.01100
Br467      Br  0.39320566  0.88849293  0.29219625    -0.01100
Br468      Br  0.27091157  0.91652905  0.32471914    -0.01000
C469        C  0.25518469  0.83845841  0.91433334    -0.02800
C470        C  0.37578475  0.72344412  0.81630152    -0.02800
C471        C  0.23945656  0.60045422  0.91943135    -0.02800
C472        C  0.12285867  0.71275599  0.81798078    -0.02800
C473        C  0.38617192  0.71786653  0.66055488    -0.02800
C474        C  0.25198442  0.82522676  0.56421581    -0.02800
C475        C  0.12922021  0.70879438  0.66568533    -0.02800
C476        C  0.26170760  0.58282682  0.57552453    -0.02800
O477        O  0.29766853  0.90722701  0.95786956    -0.72100
O478        O  0.29889813  0.52865036  0.52455797    -0.72300
O479        O  0.29785192  0.91138745  0.52877290    -0.72200
O480        O  0.28970946  0.52299779  0.95207656    -0.72200
O481        O  0.20140161  0.52686012  0.96482642    -0.72100
O482        O  0.20882708  0.88904554  0.52191636    -0.72200
O483        O  0.21146187  0.50338733  0.53642675    -0.72100
O484        O  0.20792063  0.91184160  0.95223773    -0.72300
V485        V  0.29501563  0.96782914  0.99079737     1.35200
V486        V  0.20841361  0.95822224  0.99383134     1.35200
C487        C  0.25363811  0.89023228  0.94153898     0.77100
C488        C  0.25732560  0.53360657  0.54536735     0.77200
C489        C  0.25294398  0.87846289  0.53764944     0.77100
C490        C  0.24303539  0.54579591  0.94547514     0.77000
O491        O  0.43505816  0.67618756  0.77500402    -0.72100
O492        O  0.05875314  0.66618259  0.71009380    -0.72300
O493        O  0.05008044  0.66840546  0.77938728    -0.72200
O494        O  0.44493736  0.67530852  0.70546465    -0.72200
O495        O  0.45231172  0.76736029  0.70371849    -0.72100
O496        O  0.06692552  0.76059012  0.77381695    -0.72200
O497        O  0.06837345  0.75871834  0.70489419    -0.72100
O498        O  0.45199700  0.76825800  0.77494136    -0.72300
V499        V  0.99719157  0.67339819  0.74248051     1.35200
V500        V  0.00956213  0.76210076  0.73936746     1.35200
C501        C  0.42371603  0.72305880  0.78769218     0.77100
C502        C  0.08433442  0.71096377  0.69551201     0.77200
C503        C  0.07766288  0.71376455  0.78916590     0.77100
C504        C  0.43022682  0.72144733  0.69112460     0.77000
C505        C  0.20078218  0.57879530  0.64307528    -0.02200
C506        C  0.20456273  0.58169287  0.60523894     0.07500
C507        C  0.14544563  0.58761673  0.59679110    -0.02300
C508        C  0.10716670  0.62263949  0.61637897    -0.02300
C509        C  0.12394754  0.64411252  0.64834128     0.07600
C510        C  0.15388602  0.60002352  0.66200009    -0.01900
Br511      Br  0.10226416  0.54664319  0.69063325    -0.01000
Br512      Br  0.22757526  0.52605923  0.67627092    -0.01100
Br513      Br  0.03149751  0.58513988  0.62392926    -0.01100
Br514      Br  0.11085750  0.51488297  0.58144436    -0.01000
C515        C  0.20571574  0.65975125  0.54190459    -0.02200
C516        C  0.25966103  0.64301033  0.55038104     0.07500
C517        C  0.30179328  0.68617886  0.53254607    -0.02300
C518        C  0.28794396  0.74559806  0.52718128    -0.02300
C519        C  0.24090918  0.76473334  0.54345584     0.07600
C520        C  0.19355527  0.71909531  0.54161629    -0.02500
Br521      Br  0.11197292  0.72355858  0.53862985    -0.01000
Br522      Br  0.15492359  0.60302384  0.52226846    -0.01100
Br523      Br  0.33479261  0.80781373  0.50422973    -0.01100
Br524      Br  0.38347913  0.68546139  0.52775248    -0.01000
C525        C  0.15970977  0.82398361  0.64891501    -0.02200
C526        C  0.12496297  0.77105660  0.64323615     0.07500
C527        C  0.10248358  0.77917009  0.61113438    -0.02300
C528        C  0.13790020  0.81099828  0.58458820    -0.02300
C529        C  0.19699589  0.82746942  0.59027528     0.07600
C530        C  0.19831217  0.84986110  0.62213424    -0.02500
Br531      Br  0.21470929  0.93011727  0.61762096    -0.01000
Br532      Br  0.13284045  0.87332159  0.68181960    -0.01100
Br533      Br  0.09979825  0.85924137  0.55299912    -0.01100
Br534      Br  0.02800494  0.80307514  0.61820274    -0.01000
C535        C  0.22503554  0.68106996  0.70109575    -0.02200
C536        C  0.19445621  0.71416660  0.67734580     0.07500
C537        C  0.23121995  0.73857421  0.65292901    -0.02300
C538        C  0.28550356  0.76002407  0.66032924    -0.02300
C539        C  0.32062942  0.71994734  0.67480400     0.07600
C540        C  0.28753032  0.68088627  0.69824359    -0.02500
Br541      Br  0.32567132  0.63199483  0.72715152    -0.01000
Br542      Br  0.18256062  0.63293638  0.73381797    -0.01100
Br543      Br  0.28182219  0.83401603  0.67954199    -0.01100
Br544      Br  0.21034869  0.71073165  0.61205606    -0.01000
C545        C  0.36383452  0.60210150  0.65546902    -0.02200
C546        C  0.39353348  0.65372817  0.64294151     0.07500
C547        C  0.41554774  0.64073430  0.60943922    -0.02300
C548        C  0.38066464  0.60192692  0.58809257    -0.02300
C549        C  0.32286295  0.58165803  0.59813922     0.07600
C550        C  0.32745607  0.56739391  0.63351469    -0.02500
Br551      Br  0.33235499  0.48719558  0.64436581    -0.01000
Br552      Br  0.41244963  0.56202550  0.68655610    -0.01100
Br553      Br  0.41844807  0.56305086  0.55361204    -0.01100
Br554      Br  0.47883702  0.68555950  0.58678749    -0.01000
C555        C  0.38119755  0.83274725  0.63372486    -0.02200
C556        C  0.39244175  0.77225679  0.63143104     0.07500
C557        C  0.38232027  0.75824335  0.59854824    -0.02300
C558        C  0.36505987  0.79518007  0.57350587    -0.02300
C559        C  0.31821604  0.82816380  0.58240070     0.07600
C560        C  0.34470165  0.86129935  0.60834437    -0.02500
Br561      Br  0.38191487  0.92993113  0.58625111    -0.01000
Br562      Br  0.42342136  0.87803064  0.66525608    -0.01100
Br563      Br  0.43675568  0.82814067  0.55192450    -0.01100
Br564      Br  0.32651908  0.70771724  0.59786212    -0.01000
C565        C  0.15309077  0.60361484  0.83299720    -0.02200
C566        C  0.11724599  0.64753291  0.83955862     0.07500
C567        C  0.08907499  0.62513391  0.87064757    -0.02300
C568        C  0.12262325  0.59934199  0.89820861    -0.02300
C569        C  0.18359829  0.59518127  0.89332520     0.07600
C570        C  0.18944480  0.58263272  0.85929329    -0.02500
Br571      Br  0.20714169  0.50793276  0.85742191    -0.01000
Br572      Br  0.12548236  0.55312425  0.79870147    -0.01100
Br573      Br  0.08416502  0.54439991  0.93050541    -0.01100
Br574      Br  0.02349132  0.57620252  0.85870174    -0.01000
C575        C  0.27422346  0.67345954  0.81499056    -0.02200
C576        C  0.31478711  0.71017086  0.79839198     0.07500
C577        C  0.28667456  0.74041816  0.77126861    -0.02300
C578        C  0.22177354  0.73847754  0.77029308    -0.02300
C579        C  0.18791266  0.71475120  0.80077289     0.07600
C580        C  0.22608279  0.70088533  0.82409688    -0.02500
Br581      Br  0.23602209  0.78044384  0.83158140    -0.01000
Br582      Br  0.26456463  0.59931790  0.79602320    -0.01100
Br583      Br  0.18725244  0.79277787  0.74275667    -0.01100
Br584      Br  0.33549578  0.79260961  0.74481251    -0.01000
C585        C  0.32528440  0.57821607  0.86936262    -0.02200
C586        C  0.29992892  0.61162539  0.89468047     0.07500
C587        C  0.33469885  0.66386192  0.89446770    -0.02300
C588        C  0.38717813  0.67613226  0.87799421    -0.02300
C589        C  0.38453349  0.66804334  0.84352524     0.07600
C590        C  0.36290647  0.60747116  0.84184356    -0.02500
Br591      Br  0.39699740  0.56171313  0.80938435    -0.01000
Br592      Br  0.33774395  0.50062131  0.88210395    -0.01100
Br593      Br  0.44022072  0.63701506  0.90388090    -0.01100
Br594      Br  0.29865693  0.71993030  0.88210350    -0.01000
C595        C  0.30637157  0.74018155  0.94873873    -0.02200
C596        C  0.26015053  0.77892394  0.94077222     0.07500
C597        C  0.20995485  0.75292986  0.95856495    -0.02300
C598        C  0.19608214  0.69062293  0.95822425    -0.02300
C599        C  0.23915847  0.65476602  0.94554508     0.07600
C600        C  0.29198622  0.67910278  0.95596752    -0.02500
Br601      Br  0.34843507  0.62509169  0.96615413    -0.01000
Br602      Br  0.38991564  0.75480894  0.94525123    -0.01100
Br603      Br  0.11438406  0.66894140  0.96084963    -0.01100
Br604      Br  0.15322668  0.80181234  0.97372092    -0.01000
C605        C  0.16396578  0.86126423  0.86730389    -0.02200
C606        C  0.19155290  0.82928969  0.89376539     0.07500
C607        C  0.15168693  0.78168561  0.90038605    -0.02300
C608        C  0.11044867  0.75631026  0.87861164    -0.02300
C609        C  0.11391476  0.76842555  0.84333328     0.07600
C610        C  0.13326934  0.83034472  0.83976517    -0.02500
Br611      Br  0.11615717  0.87496902  0.80051452    -0.01000
Br612      Br  0.11351573  0.91178839  0.88668212    -0.01100
Br613      Br  0.03895297  0.73855019  0.90102250    -0.01100
Br614      Br  0.17504066  0.71526807  0.89230225    -0.01000
C615        C  0.36906232  0.83511755  0.89102732    -0.02200
C616        C  0.31137273  0.84797614  0.88516575     0.07500
C617        C  0.31570080  0.86595011  0.84909448    -0.02300
C618        C  0.35064582  0.83745817  0.82499902    -0.02300
C619        C  0.37740949  0.78747732  0.83530647     0.07600
C620        C  0.40190039  0.80381222  0.86651677    -0.02500
Br621      Br  0.47951775  0.83311833  0.85819958    -0.01000
Br622      Br  0.41013993  0.88780907  0.91990077    -0.01100
Br623      Br  0.39322399  0.88849171  0.79219875    -0.01100
Br624      Br  0.27093080  0.91652842  0.82472130    -0.01000
C625        C  0.75517742  0.33846145  0.41433297    -0.02800
C626        C  0.87577230  0.22344764  0.31630018    -0.02800
C627        C  0.73945003  0.10045747  0.41943131    -0.02800
C628        C  0.62284662  0.21275793  0.31798229    -0.02800
C629        C  0.88615872  0.21786487  0.16055704    -0.02800
C630        C  0.75197388  0.32522269  0.06421714    -0.02800
C631        C  0.62920718  0.20879174  0.16568591    -0.02800
C632        C  0.76169513  0.08282228  0.07552693    -0.02800
O633        O  0.79766705  0.40723134  0.45786635    -0.72100
O634        O  0.79889186  0.02864485  0.02456189    -0.72300
O635        O  0.79784473  0.41138439  0.02877669    -0.72200
O636        O  0.78970638  0.02300017  0.45207311    -0.72200
O637        O  0.70140097  0.02686466  0.46482854    -0.72100
O638        O  0.70882120  0.38904172  0.02191564    -0.72200
O639        O  0.71145302  0.00338617  0.03642518    -0.72100
O640        O  0.70791790  0.41184354  0.45223933    -0.72300
V641        V  0.79501814  0.46783415  0.49079390     1.35200
V642        V  0.70841675  0.45822360  0.49383305     1.35200
C643        C  0.75363418  0.39023531  0.44153829     0.77100
C644        C  0.75731628  0.03360272  0.04536899     0.77200
C645        C  0.75293590  0.37845941  0.03765105     0.77100
C646        C  0.74303171  0.04579921  0.44547467     0.77000
O647        O  0.93504608  0.17619036  0.27500426    -0.72100
O648        O  0.55874145  0.16618196  0.21009554    -0.72300
O649        O  0.55006775  0.16840734  0.27938905    -0.72200
O650        O  0.94492603  0.17530838  0.20546581    -0.72200
O651        O  0.95229957  0.26736015  0.20371930    -0.72100
O652        O  0.56691425  0.26059159  0.27381752    -0.72200
O653        O  0.56836124  0.25871744  0.20489433    -0.72100
O654        O  0.95198565  0.26826076  0.27494111    -0.72300
V655        V  0.49717977  0.17339916  0.24248176     1.35200
V656        V  0.50955071  0.26210146  0.23936782     1.35200
C657        C  0.92370352  0.22306205  0.28769150     0.77100
C658        C  0.58432203  0.21096246  0.19551272     0.77200
C659        C  0.57765054  0.21376641  0.28916742     0.77100
C660        C  0.93021441  0.22144676  0.19112606     0.77000
C661        C  0.70076880  0.07879093  0.14307759    -0.02200
C662        C  0.70454961  0.08168732  0.10524125     0.07500
C663        C  0.64543264  0.08761036  0.09679341    -0.02300
C664        C  0.60715326  0.12263367  0.11638072    -0.02300
C665        C  0.62393430  0.14410897  0.14834267     0.07600
C666        C  0.65387300  0.10002081  0.16200222    -0.01900
Br667      Br  0.60225030  0.04664317  0.19063676    -0.01000
Br668      Br  0.72755767  0.02605088  0.17627241    -0.01100
Br669      Br  0.53148470  0.08513185  0.12393124    -0.01100
Br670      Br  0.61084687  0.01487532  0.08144711    -0.01000
C671        C  0.70570224  0.15974675  0.04190677    -0.02200
C672        C  0.75964760  0.14300555  0.05038358     0.07500
C673        C  0.80178013  0.18617294  0.03254831    -0.02300
C674        C  0.78793228  0.24559249  0.02718331    -0.02300
C675        C  0.74089758  0.26472889  0.04345723     0.07600
C676        C  0.69354282  0.21909137  0.04161750    -0.02500
Br677      Br  0.61196088  0.22355738  0.03862659    -0.01000
Br678      Br  0.65490844  0.10301923  0.02227170    -0.01100
Br679      Br  0.83478203  0.30780791  0.00423242    -0.01100
Br680      Br  0.88346566  0.18545485  0.02775678    -0.01000
C681        C  0.65969587  0.32398109  0.14891472    -0.02200
C682        C  0.62495012  0.27105328  0.14323597     0.07500
C683        C  0.60247164  0.27916604  0.11113384    -0.02300
C684        C  0.63788956  0.31099303  0.08458775    -0.02300
C685        C  0.69698463  0.32746455  0.09027584     0.07600
C686        C  0.69829843  0.34985868  0.12213400    -0.02500
Br687      Br  0.71468787  0.43011552  0.11761731    -0.01000
Br688      Br  0.63282440  0.37331989  0.18181816    -0.01100
Br689      Br  0.59979000  0.35923711  0.05299788    -0.01100
Br690      Br  0.52799410  0.30307503  0.11820170    -0.01000
C691        C  0.72502229  0.18106964  0.20109728    -0.02200
C692        C  0.69444304  0.21416470  0.17734653     0.07500
C693        C  0.73120689  0.23857178  0.15292966    -0.02300
C694        C  0.78549012  0.26002255  0.16032997    -0.02300
C695        C  0.82061618  0.21994686  0.17480571     0.07600
C696        C  0.78751703  0.18088669  0.19824557    -0.02500
Br697      Br  0.82565941  0.13199908  0.22715467    -0.01000
Br698      Br  0.68254776  0.13293669  0.23381974    -0.01100
Br699      Br  0.78180671  0.33401505  0.17954173    -0.01100
Br700      Br  0.71033616  0.21072637  0.11205727    -0.01000
C701        C  0.86381980  0.10209987  0.15547273    -0.02200
C702        C  0.89351948  0.15372574  0.14294465     0.07500
C703        C  0.91553474  0.14073049  0.10944293    -0.02300
C704        C  0.88065228  0.10192215  0.08809660    -0.02300
C705        C  0.82284983  0.08165486  0.09814267     0.07600
C706        C  0.82744200  0.06739156  0.13351844    -0.02500
Br707      Br  0.83234296  0.98719375  0.14437076    -0.01000
Br708      Br  0.91243397  0.06202497  0.18656128    -0.01100
Br709      Br  0.91843698  0.06304482  0.05361729    -0.01100
Br710      Br  0.97882511  0.18555474  0.08679172    -0.01000
C711        C  0.88118551  0.33274429  0.13372705    -0.02200
C712        C  0.89242977  0.27225401  0.13143316     0.07500
C713        C  0.88230885  0.25824003  0.09855051    -0.02300
C714        C  0.86504877  0.29517640  0.07350805    -0.02300
C715        C  0.81820501  0.32816033  0.08240263     0.07600
C716        C  0.84469066  0.36129638  0.10834629    -0.02500
Br717      Br  0.88190902  0.42992742  0.08625485    -0.01000
Br718      Br  0.92340638  0.37802760  0.16525954    -0.01100
Br719      Br  0.93674461  0.32813616  0.05192624    -0.01100
Br720      Br  0.82650713  0.20771423  0.09786400    -0.01000
C721        C  0.65307977  0.10361660  0.33299855    -0.02200
C722        C  0.61723480  0.14753450  0.33956033     0.07500
C723        C  0.58906546  0.12513473  0.37064979    -0.02300
C724        C  0.62261562  0.09934380  0.39821043    -0.02300
C725        C  0.68359055  0.09518423  0.39332605     0.07600
C726        C  0.68943510  0.08263494  0.35929424    -0.02500
Br727      Br  0.70713086  0.00793451  0.35742378    -0.01000
Br728      Br  0.62547075  0.05312529  0.29870329    -0.01100
Br729      Br  0.58416050  0.04440101  0.43050795    -0.01100
Br730      Br  0.52348393  0.07619865  0.35870478    -0.01000
C731        C  0.77421129  0.17346235  0.31499049    -0.02200
C732        C  0.81477435  0.21017363  0.29839125     0.07500
C733        C  0.78666111  0.24042116  0.27126838    -0.02300
C734        C  0.72176006  0.23848037  0.27029350    -0.02300
C735        C  0.68790005  0.21475360  0.30077368     0.07600
C736        C  0.72607084  0.20088800  0.32409728    -0.02500
Br737      Br  0.73601018  0.28044668  0.33158173    -0.01000
Br738      Br  0.76455229  0.09931940  0.29602462    -0.01100
Br739      Br  0.68723837  0.29278016  0.24275695    -0.01100
Br740      Br  0.83548193  0.29261414  0.24481279    -0.01000
C741        C  0.82527572  0.07821941  0.36936087    -0.02200
C742        C  0.79992093  0.11162829  0.39467947     0.07500
C743        C  0.83468997  0.16386522  0.39446631    -0.02300
C744        C  0.88716870  0.17613602  0.37799244    -0.02300
C745        C  0.88452298  0.16804744  0.34352363     0.07600
C746        C  0.86289737  0.10747513  0.34184187    -0.02500
Br747      Br  0.89698875  0.06171863  0.30938194    -0.01000
Br748      Br  0.83773290  0.00062246  0.38209832    -0.01100
Br749      Br  0.94021190  0.13701830  0.40387815    -0.01100
Br750      Br  0.79864640  0.21993320  0.38210305    -0.01000
C751        C  0.80636618  0.24018553  0.44873804    -0.02200
C752        C  0.76014466  0.27892767  0.44077222     0.07500
C753        C  0.70994924  0.25293329  0.45856534    -0.02300
C754        C  0.69607692  0.19062618  0.45822492    -0.02300
C755        C  0.73915281  0.15476952  0.44554517     0.07600
C756        C  0.79198077  0.17910676  0.45596710    -0.02500
Br757      Br  0.84842867  0.12509511  0.46615333    -0.01000
Br758      Br  0.88991062  0.25481013  0.44524554    -0.01100
Br759      Br  0.61437916  0.16894227  0.46085322    -0.01100
Br760      Br  0.65322126  0.30181593  0.47372174    -0.01000
C761        C  0.66395417  0.36126671  0.36730544    -0.02200
C762        C  0.69154386  0.32929278  0.39376628     0.07500
C763        C  0.65167828  0.28168852  0.40038751    -0.02300
C764        C  0.61043957  0.25631170  0.37861360    -0.02300
C765        C  0.61390338  0.26842735  0.34333510     0.07600
C766        C  0.63325796  0.33034667  0.33976677    -0.02500
Br767      Br  0.61614679  0.37497049  0.30051580    -0.01000
Br768      Br  0.61349761  0.41178289  0.38668592    -0.01100
Br769      Br  0.53894465  0.23855238  0.40102611    -0.01100
Br770      Br  0.67503021  0.21527042  0.39230356    -0.01000
C771        C  0.86905383  0.33512179  0.39102486    -0.02200
C772        C  0.81136372  0.34797980  0.38516449     0.07500
C773        C  0.81568929  0.36595360  0.34909322    -0.02300
C774        C  0.85063347  0.33746189  0.32499732    -0.02300
C775        C  0.87739718  0.28748084  0.33530455     0.07600
C776        C  0.90188975  0.30381527  0.36651408    -0.02500
Br777      Br  0.97950873  0.33311375  0.35819638    -0.01000
Br778      Br  0.91013468  0.38781352  0.41989663    -0.01100
Br779      Br  0.89321235  0.38849673  0.29219801    -0.01100
Br780      Br  0.77091822  0.41653299  0.32472112    -0.01000
C781        C  0.75518923  0.33845853  0.91433410    -0.02800
C782        C  0.87579078  0.22344741  0.81630187    -0.02800
C783        C  0.73946117  0.10045468  0.91943074    -0.02800
C784        C  0.62286470  0.21275930  0.81798037    -0.02800
C785        C  0.88617688  0.21786912  0.66055465    -0.02800
C786        C  0.75198856  0.32522732  0.56421595    -0.02800
C787        C  0.62922557  0.20879672  0.66568581    -0.02800
C788        C  0.76171066  0.08282718  0.57552510    -0.02800
O789        O  0.79767124  0.40722852  0.95786979    -0.72100
O790        O  0.79890007  0.02864924  0.52455809    -0.72300
O791        O  0.79785428  0.41138887  0.52877302    -0.72200
O792        O  0.78971164  0.02299684  0.95207628    -0.72200
O793        O  0.70140412  0.02686205  0.96482601    -0.72100
O794        O  0.70882995  0.38904432  0.52191632    -0.72200
O795        O  0.71146333  0.00338896  0.53642676    -0.72100
O796        O  0.70792297  0.41184029  0.95223793    -0.72300
V797        V  0.79501588  0.46783042  0.99079743     1.35200
V798        V  0.70841411  0.45822079  0.99383140     1.35200
C799        C  0.75364118  0.39023202  0.94153946     0.77100
C800        C  0.75732783  0.03360676  0.54536752     0.77200
C801        C  0.75294714  0.37846311  0.53764954     0.77100
C802        C  0.74303846  0.04579632  0.94547467     0.77000
O803        O  0.93506374  0.17619121  0.77500403    -0.72100
O804        O  0.55875862  0.16618568  0.71009422    -0.72300
O805        O  0.55008568  0.16840914  0.77938748    -0.72200
O806        O  0.94494301  0.17531175  0.70546444    -0.72200
O807        O  0.95231672  0.26736336  0.70371842    -0.72100
O808        O  0.56693144  0.26059364  0.77381669    -0.72200
O809        O  0.56837853  0.25872133  0.70489414    -0.72100
O810        O  0.95200275  0.26826152  0.77494145    -0.72300
V811        V  0.49719700  0.17340158  0.74248069     1.35200
V812        V  0.50956753  0.26210400  0.73936749     1.35200
C813        C  0.92372187  0.22306238  0.78769237     0.77100
C814        C  0.58433992  0.21096667  0.69551230     0.77200
C815        C  0.57766873  0.21376810  0.78916573     0.77100
C816        C  0.93023221  0.22145036  0.69112437     0.77000
C817        C  0.70078655  0.07879684  0.64307627    -0.02200
C818        C  0.70456640  0.08169347  0.60523990     0.07500
C819        C  0.64544929  0.08761697  0.59679253    -0.02300
C820        C  0.60717112  0.12264083  0.61638013    -0.02300
C821        C  0.62395260  0.14411460  0.64834220     0.07600
C822        C  0.65389103  0.10002591  0.66200128    -0.01900
Br823      Br  0.60226914  0.04664663  0.69063520    -0.01000
Br824      Br  0.72757881  0.02606012  0.67627171    -0.01100
Br825      Br  0.53150185  0.08514218  0.62393102    -0.01100
Br826      Br  0.61086133  0.01488197  0.58144753    -0.01000
C827        C  0.70571788  0.15975162  0.54190552    -0.02200
C828        C  0.75966335  0.14301045  0.55038165     0.07500
C829        C  0.80179544  0.18617853  0.53254631    -0.02300
C830        C  0.78794667  0.24559793  0.52718145    -0.02300
C831        C  0.74091237  0.26473364  0.54345624     0.07600
C832        C  0.69355800  0.21909584  0.54161700    -0.02500
Br833      Br  0.61197569  0.22355970  0.53863004    -0.01000
Br834      Br  0.65492374  0.10302429  0.52227057    -0.01100
Br835      Br  0.83479527  0.30781367  0.50422982    -0.01100
Br836      Br  0.88348102  0.18545990  0.52775244    -0.01000
C837        C  0.65971414  0.32398578  0.64891485    -0.02200
C838        C  0.62496807  0.27105822  0.64323628     0.07500
C839        C  0.60248837  0.27917057  0.61113458    -0.02300
C840        C  0.63790460  0.31099864  0.58458829    -0.02300
C841        C  0.69700018  0.32746994  0.59027543     0.07600
C842        C  0.69831576  0.34986354  0.62213384    -0.02500
Br843      Br  0.71470312  0.43012066  0.61761752    -0.01000
Br844      Br  0.63284494  0.37332349  0.68181958    -0.01100
Br845      Br  0.59980178  0.35924194  0.55299966    -0.01100
Br846      Br  0.52800917  0.30307407  0.61820297    -0.01000
C847        C  0.72504124  0.18107353  0.70109616    -0.02200
C848        C  0.69446164  0.21416945  0.67734603     0.07500
C849        C  0.73122504  0.23857658  0.65292898    -0.02300
C850        C  0.78550857  0.26002686  0.66032893    -0.02300
C851        C  0.82063461  0.21995052  0.67480388     0.07600
C852        C  0.78753586  0.18089023  0.69824396    -0.02500
Br853      Br  0.82567779  0.13200091  0.72715245    -0.01000
Br854      Br  0.68256666  0.13294049  0.73381849    -0.01100
Br855      Br  0.78182649  0.33401880  0.67954155    -0.01100
Br856      Br  0.71035387  0.21073232  0.61205653    -0.01000
C857        C  0.86383871  0.10210414  0.65546968    -0.02200
C858        C  0.89353773  0.15373029  0.64294163     0.07500
C859        C  0.91555160  0.14073517  0.60943936    -0.02300
C860        C  0.88066821  0.10192683  0.58809332    -0.02300
C861        C  0.82286628  0.08165911  0.59814000     0.07600
C862        C  0.82746004  0.06739591  0.63351570    -0.02500
Br863      Br  0.83236034  0.98719819  0.64436808    -0.01000
Br864      Br  0.91245382  0.06202935  0.68655754    -0.01100
Br865      Br  0.91845101  0.06304974  0.55361306    -0.01100
Br866      Br  0.97884058  0.18555931  0.58678673    -0.01000
C867        C  0.88120209  0.33274915  0.63372439    -0.02200
C868        C  0.89244659  0.27225872  0.63143064     0.07500
C869        C  0.88232505  0.25824476  0.59854798    -0.02300
C870        C  0.86506439  0.29518100  0.57350554    -0.02300
C871        C  0.81822077  0.32816528  0.58240030     0.07600
C872        C  0.84470648  0.36130111  0.60834389    -0.02500
Br873      Br  0.88192306  0.42993197  0.58625117    -0.01000
Br874      Br  0.92342389  0.37803256  0.66525654    -0.01100
Br875      Br  0.93676002  0.32814052  0.55192346    -0.01100
Br876      Br  0.82652404  0.20771881  0.59786173    -0.01000
C877        C  0.65309665  0.10361800  0.83299611    -0.02200
C878        C  0.61725185  0.14753590  0.83955764     0.07500
C879        C  0.58908037  0.12513637  0.87064628    -0.02300
C880        C  0.62262785  0.09934283  0.89820725    -0.02300
C881        C  0.68360303  0.09518229  0.89332435     0.07600
C882        C  0.68945014  0.08263523  0.85929231    -0.02500
Br883      Br  0.70714674  0.00793550  0.85742074    -0.01000
Br884      Br  0.62548786  0.05312714  0.79870052    -0.01100
Br885      Br  0.58416824  0.04440028  0.93050319    -0.01100
Br886      Br  0.52349574  0.07620755  0.85869949    -0.01000
C887        C  0.77422949  0.17346333  0.81499041    -0.02200
C888        C  0.81479325  0.21017497  0.79839209     0.07500
C889        C  0.78668105  0.24042297  0.77126874    -0.02300
C890        C  0.72178008  0.23848198  0.77029302    -0.02300
C891        C  0.68791893  0.21475492  0.80077258     0.07600
C892        C  0.72608879  0.20088899  0.82409668    -0.02500
Br893      Br  0.73602801  0.28044732  0.83158177    -0.01000
Br894      Br  0.76457066  0.09932156  0.79602313    -0.01100
Br895      Br  0.68725881  0.29278242  0.74275682    -0.01100
Br896      Br  0.83550215  0.29261530  0.74481276    -0.01000
C897        C  0.82528983  0.07821766  0.86936158    -0.02200
C898        C  0.79993401  0.11162600  0.89467999     0.07500
C899        C  0.83470392  0.16386275  0.89446756    -0.02300
C900        C  0.88718357  0.17613352  0.87799448    -0.02300
C901        C  0.88453936  0.16804586  0.84352533     0.07600
C902        C  0.86291265  0.10747368  0.84184308    -0.02500
Br903      Br  0.89700374  0.06171718  0.80938311    -0.01000
Br904      Br  0.83774745  0.00062143  0.88210072    -0.01100
Br905      Br  0.94022543  0.13701484  0.90388116    -0.01100
Br906      Br  0.79866240  0.21993172  0.88210351    -0.01000
C907        C  0.80637642  0.24018105  0.94873888    -0.02200
C908        C  0.76015524  0.27892369  0.94077270     0.07500
C909        C  0.70995923  0.25292919  0.95856512    -0.02300
C910        C  0.69608689  0.19062230  0.95822417    -0.02300
C911        C  0.73916327  0.15476595  0.94554472     0.07600
C912        C  0.79199097  0.17910226  0.95596733    -0.02500
Br913      Br  0.84843915  0.12509022  0.96615380    -0.01000
Br914      Br  0.88992058  0.25480827  0.94525204    -0.01100
Br915      Br  0.61438912  0.16893989  0.96084939    -0.01100
Br916      Br  0.65323056  0.30181118  0.97372109    -0.01000
C917        C  0.66397027  0.36126576  0.86730522    -0.02200
C918        C  0.69155768  0.32929020  0.89376603     0.07500
C919        C  0.65169199  0.28168573  0.90038619    -0.02300
C920        C  0.61045370  0.25631123  0.87861155    -0.02300
C921        C  0.61392012  0.26842782  0.84333337     0.07600
C922        C  0.63327496  0.33034703  0.83976586    -0.02500
Br923      Br  0.61616591  0.37497225  0.80051498    -0.01000
Br924      Br  0.61351577  0.41178369  0.88668563    -0.01100
Br925      Br  0.53895797  0.23854873  0.90102203    -0.01100
Br926      Br  0.67504629  0.21526894  0.89230204    -0.01000
C927        C  0.86906713  0.33511854  0.89102884    -0.02200
C928        C  0.81137784  0.34797749  0.88516694     0.07500
C929        C  0.81570677  0.36595263  0.84909586    -0.02300
C930        C  0.85065228  0.33746140  0.82500027    -0.02300
C931        C  0.87741578  0.28748021  0.83530736     0.07600
C932        C  0.90190582  0.30381420  0.86651807    -0.02500
Br933      Br  0.97952313  0.33312132  0.85820199    -0.01000
Br934      Br  0.91014374  0.38780953  0.91990302    -0.01100
Br935      Br  0.89323071  0.38849558  0.79220050    -0.01100
Br936      Br  0.77093759  0.41653256  0.82472326    -0.01000
C937        C  0.75517318  0.83846141  0.41433216    -0.02800
C938        C  0.87576666  0.72344430  0.31629975    -0.02800
C939        C  0.73944544  0.60045701  0.41943196    -0.02800
C940        C  0.62284094  0.71275476  0.31798264    -0.02800
C941        C  0.88615395  0.71786218  0.16055708    -0.02800
C942        C  0.75196996  0.82522207  0.06421704    -0.02800
C943        C  0.62920208  0.70878958  0.16568543    -0.02800
C944        C  0.76169210  0.58282217  0.07552628    -0.02800
O945        O  0.79766474  0.90723004  0.45786592    -0.72100
O946        O  0.79888986  0.52864620  0.02456170    -0.72300
O947        O  0.79784248  0.91138283  0.02877667    -0.72200
O948        O  0.78970430  0.52300122  0.45207349    -0.72200
O949        O  0.70139852  0.52686271  0.46482899    -0.72100
O950        O  0.70881848  0.88904275  0.02191565    -0.72200
O951        O  0.71145157  0.50338463  0.03642519    -0.72100
O952        O  0.70791599  0.91184503  0.45223901    -0.72300
V953        V  0.79501798  0.96783288  0.49079375     1.35200
V954        V  0.70841664  0.95822520  0.49383288     1.35200
C955        C  0.75363141  0.89023548  0.44153770     0.77100
C956        C  0.75731403  0.53360277  0.04536865     0.77200
C957        C  0.75293286  0.87845895  0.03765101     0.77100
C958        C  0.74302878  0.54579878  0.44547524     0.77000
O959        O  0.93504094  0.67618643  0.27500408    -0.72100
O960        O  0.55873627  0.66617893  0.21009499    -0.72300
O961        O  0.55006273  0.66840368  0.27938891    -0.72200
O962        O  0.94492073  0.67530512  0.20546586    -0.72200
O963        O  0.95229479  0.76735694  0.20371921    -0.72100
O964        O  0.56690852  0.76058812  0.27381769    -0.72200
O965        O  0.56835648  0.75871465  0.20489448    -0.72100
O966        O  0.95198021  0.76825684  0.27494080    -0.72300
V967        V  0.49717464  0.67339573  0.24248158     1.35200
V968        V  0.50954556  0.76209834  0.23936780     1.35200
C969        C  0.92369816  0.72305820  0.28769124     0.77100
C970        C  0.58431691  0.71095973  0.19551229     0.77200
C971        C  0.57764506  0.71376287  0.28916756     0.77100
C972        C  0.93020928  0.72144361  0.19112612     0.77000
C973        C  0.70076442  0.57878978  0.14307647    -0.02200
C974        C  0.70454584  0.58168696  0.10524013     0.07500
C975        C  0.64542891  0.58761042  0.09679182    -0.02300
C976        C  0.60714893  0.62263253  0.11637951    -0.02300
C977        C  0.62392937  0.64410708  0.14834171     0.07600
C978        C  0.65386798  0.60001861  0.16200101    -0.01900
Br979      Br  0.60224535  0.54663967  0.19063480    -0.01000
Br980      Br  0.72755430  0.52605069  0.17627150    -0.01100
Br981      Br  0.53148062  0.58512970  0.12392948    -0.01100
Br982      Br  0.61084284  0.51487662  0.08144390    -0.01000
C983        C  0.70570014  0.65974666  0.04190608    -0.02200
C984        C  0.75964533  0.64300553  0.05038288     0.07500
C985        C  0.80177793  0.68617339  0.03254804    -0.02300
C986        C  0.78792950  0.74559277  0.02718305    -0.02300
C987        C  0.74089452  0.76472872  0.04345701     0.07600
C988        C  0.69354016  0.71909098  0.04161714    -0.02500
Br989      Br  0.61195821  0.72355635  0.03862656    -0.01000
Br990      Br  0.65490835  0.60301908  0.02226970    -0.01100
Br991      Br  0.83477943  0.80780792  0.00423224    -0.01100
Br992      Br  0.88346351  0.68545599  0.02775693    -0.01000
C993        C  0.65969155  0.82397898  0.14891473    -0.02200
C994        C  0.62494518  0.77105174  0.14323572     0.07500
C995        C  0.60246686  0.77916562  0.11113358    -0.02300
C996        C  0.63788519  0.81099265  0.08458758    -0.02300
C997        C  0.69698039  0.82746409  0.09027564     0.07600
C998        C  0.69829511  0.84985610  0.12213440    -0.02500
Br999      Br  0.71469406  0.93011202  0.11762075    -0.01000
Br1000     Br  0.63281960  0.87331800  0.18181798    -0.01100
Br1001     Br  0.59978659  0.85923682  0.05299742    -0.01100
Br1002     Br  0.52798993  0.80307615  0.11820148    -0.01000
C1003       C  0.72501689  0.68106599  0.20109677    -0.02200
C1004       C  0.69443790  0.71416206  0.17734633     0.07500
C1005       C  0.73120204  0.73856972  0.15292977    -0.02300
C1006       C  0.78548541  0.76001999  0.16033032    -0.02300
C1007       C  0.82061123  0.71994372  0.17480575     0.07600
C1008       C  0.78751170  0.68088276  0.19824514    -0.02500
Br1009     Br  0.82565298  0.63199256  0.22715350    -0.01000
Br1010     Br  0.68254186  0.63293261  0.23381904    -0.01100
Br1011     Br  0.78180263  0.83401265  0.17954204    -0.01100
Br1012     Br  0.71033125  0.71072577  0.11205692    -0.01000
C1013       C  0.86381628  0.60209722  0.15547192    -0.02200
C1014       C  0.89351563  0.65372365  0.14294441     0.07500
C1015       C  0.91553117  0.64072968  0.10944267    -0.02300
C1016       C  0.88064908  0.60192186  0.08809590    -0.02300
C1017       C  0.82284663  0.58165397  0.09814185     0.07600
C1018       C  0.82743820  0.56738984  0.13351737    -0.02500
Br1019     Br  0.83233744  0.48719149  0.14436830    -0.01000
Br1020     Br  0.91243053  0.56202108  0.18655953    -0.01100
Br1021     Br  0.91843413  0.56304590  0.05361606    -0.01100
Br1022     Br  0.97882168  0.68555480  0.08679229    -0.01000
C1023       C  0.88118096  0.83274217  0.13372733    -0.02200
C1024       C  0.89242494  0.77225178  0.13143332     0.07500
C1025       C  0.88230395  0.75823825  0.09855055    -0.02300
C1026       C  0.86504473  0.79517551  0.07350820    -0.02300
C1027       C  0.81820073  0.82815895  0.08240281     0.07600
C1028       C  0.84468602  0.86129458  0.10834660    -0.02500
Br1029     Br  0.88190123  0.92992658  0.08625484    -0.01000
Br1030     Br  0.92340393  0.87802536  0.16525911    -0.01100
Br1031     Br  0.93674060  0.82813662  0.05192707    -0.01100
Br1032     Br  0.82650222  0.70771245  0.09786439    -0.01000
C1033       C  0.65307414  0.60361378  0.33299958    -0.02200
C1034       C  0.61722906  0.64753173  0.33956117     0.07500
C1035       C  0.58906014  0.62513259  0.37065100    -0.02300
C1036       C  0.62261095  0.59934288  0.39821173    -0.02300
C1037       C  0.68358570  0.59518293  0.39332695     0.07600
C1038       C  0.68942988  0.58263272  0.35929519    -0.02500
Br1039     Br  0.70712564  0.50793198  0.35742495    -0.01000
Br1040     Br  0.62546566  0.55312242  0.29870421    -0.01100
Br1041     Br  0.58415694  0.54440099  0.43051020    -0.01100
Br1042     Br  0.52347953  0.57619438  0.35870676    -0.01000
C1043       C  0.77420572  0.67345854  0.31499066    -0.02200
C1044       C  0.81476849  0.71016953  0.29839112     0.07500
C1045       C  0.78665504  0.74041620  0.27126803    -0.02300
C1046       C  0.72175400  0.73847560  0.27029333    -0.02300
C1047       C  0.68789441  0.71474991  0.30077384     0.07600
C1048       C  0.72606532  0.70088434  0.32409744    -0.02500
Br1049     Br  0.73600444  0.78044329  0.33158116    -0.01000
Br1050     Br  0.76454639  0.59931571  0.29602463    -0.01100
Br1051     Br  0.68723246  0.79277576  0.24275687    -0.01100
Br1052     Br  0.83547624  0.79260800  0.24481228    -0.01000
C1053       C  0.82527047  0.57821778  0.36936189    -0.02200
C1054       C  0.79991590  0.61162763  0.39467998     0.07500
C1055       C  0.83468499  0.66386440  0.39446639    -0.02300
C1056       C  0.88716357  0.67613469  0.37799230    -0.02300
C1057       C  0.88451744  0.66804493  0.34352366     0.07600
C1058       C  0.86289142  0.60747266  0.34184240    -0.02500
Br1059     Br  0.89698285  0.56171484  0.30938319    -0.01000
Br1060     Br  0.83772898  0.50062214  0.38210150    -0.01100
Br1061     Br  0.94020749  0.63701812  0.40387790    -0.01100
Br1062     Br  0.79864122  0.71993199  0.38210293    -0.01000
C1063       C  0.80636174  0.74018606  0.44873774    -0.02200
C1064       C  0.76014034  0.77892805  0.44077171     0.07500
C1065       C  0.70994505  0.75293424  0.45856500    -0.02300
C1066       C  0.69607232  0.69062717  0.45822500    -0.02300
C1067       C  0.73914813  0.65476982  0.44554541     0.07600
C1068       C  0.79197620  0.67910741  0.45596701    -0.02500
Br1069     Br  0.84842457  0.62509659  0.46615360    -0.01000
Br1070     Br  0.88990598  0.75481085  0.44524461    -0.01100
Br1071     Br  0.61437421  0.66894419  0.46085343    -0.01100
Br1072     Br  0.65321788  0.80181745  0.47372169    -0.01000
C1073       C  0.66394975  0.86126520  0.36730405    -0.02200
C1074       C  0.69153929  0.82929242  0.39376554     0.07500
C1075       C  0.65167369  0.78168832  0.40038726    -0.02300
C1076       C  0.61043473  0.75631068  0.37861372    -0.02300
C1077       C  0.61389801  0.76842507  0.34333501     0.07600
C1078       C  0.63325239  0.83034429  0.33976602    -0.02500
Br1079     Br  0.61613849  0.87496700  0.30051506    -0.01000
Br1080     Br  0.61349764  0.91178759  0.38668218    -0.01100
Br1081     Br  0.53893972  0.73855423  0.40102660    -0.01100
Br1082     Br  0.67502491  0.71526944  0.39230362    -0.01000
C1083       C  0.86904915  0.83512092  0.39102324    -0.02200
C1084       C  0.81135883  0.84797873  0.38516322     0.07500
C1085       C  0.81568350  0.86595116  0.34909176    -0.02300
C1086       C  0.85062710  0.83745865  0.32499589    -0.02300
C1087       C  0.87739114  0.78747790  0.33530350     0.07600
C1088       C  0.90188438  0.80381331  0.36651266    -0.02500
Br1089     Br  0.97950354  0.83311080  0.35819414    -0.01000
Br1090     Br  0.91013124  0.88781314  0.41989418    -0.01100
Br1091     Br  0.89320566  0.88849287  0.29219604    -0.01100
Br1092     Br  0.77091170  0.91652902  0.32471911    -0.01000
C1093       C  0.75518479  0.83845856  0.91433324    -0.02800
C1094       C  0.87578474  0.72344403  0.81630143    -0.02800
C1095       C  0.73945656  0.60045434  0.91943137    -0.02800
C1096       C  0.62285870  0.71275610  0.81798069    -0.02800
C1097       C  0.88617188  0.71786645  0.66055486    -0.02800
C1098       C  0.75198448  0.82522684  0.56421577    -0.02800
C1099       C  0.62922025  0.70879431  0.66568535    -0.02800
C1100       C  0.76170747  0.58282679  0.57552453    -0.02800
O1101       O  0.79766878  0.90722713  0.95786949    -0.72100
O1102       O  0.79889815  0.52865029  0.52455796    -0.72300
O1103       O  0.79785197  0.91138742  0.52877290    -0.72200
O1104       O  0.78970950  0.52299791  0.95207655    -0.72200
O1105       O  0.70140167  0.52686015  0.96482641    -0.72100
O1106       O  0.70882721  0.88904560  0.52191625    -0.72200
O1107       O  0.71146177  0.50338736  0.53642671    -0.72100
O1108       O  0.70792087  0.91184167  0.95223764    -0.72300
V1109       V  0.79501576  0.96782911  0.99079737     1.35200
V1110       V  0.70841389  0.95822231  0.99383126     1.35200
C1111       C  0.75363832  0.89023227  0.94153888     0.77100
C1112       C  0.75732557  0.53360657  0.54536729     0.77200
C1113       C  0.75294405  0.87846291  0.53764940     0.77100
C1114       C  0.74303541  0.54579598  0.94547513     0.77000
O1115       O  0.93505822  0.67618754  0.77500401    -0.72100
O1116       O  0.55875312  0.66618260  0.71009375    -0.72300
O1117       O  0.55008033  0.66840551  0.77938731    -0.72200
O1118       O  0.94493729  0.67530843  0.70546463    -0.72200
O1119       O  0.95231168  0.76736020  0.70371848    -0.72100
O1120       O  0.56692548  0.76059011  0.77381688    -0.72200
O1121       O  0.56837337  0.75871832  0.70489420    -0.72100
O1122       O  0.95199699  0.76825793  0.77494133    -0.72300
V1123       V  0.49719157  0.67339824  0.74248051     1.35200
V1124       V  0.50956209  0.76210080  0.73936748     1.35200
C1125       C  0.92371607  0.72305874  0.78769218     0.77100
C1126       C  0.58433449  0.71096377  0.69551201     0.77200
C1127       C  0.57766289  0.71376457  0.78916586     0.77100
C1128       C  0.93022674  0.72144724  0.69112458     0.77000
C1129       C  0.70078210  0.57879545  0.64307519    -0.02200
C1130       C  0.70456250  0.58169287  0.60523886     0.07500
C1131       C  0.64544531  0.58761661  0.59679104    -0.02300
C1132       C  0.60716643  0.62263930  0.61637895    -0.02300
C1133       C  0.62394750  0.64411248  0.64834122     0.07600
C1134       C  0.65388603  0.60002357  0.66200003    -0.01900
Br1135     Br  0.60226419  0.54664317  0.69063326    -0.01000
Br1136     Br  0.72757532  0.52605965  0.67627095    -0.01100
Br1137     Br  0.53149740  0.58513954  0.62392926    -0.01100
Br1138     Br  0.61085723  0.51488300  0.58144413    -0.01000
C1139       C  0.70571574  0.65975131  0.54190454    -0.02200
C1140       C  0.75966098  0.64301035  0.55038109     0.07500
C1141       C  0.80179314  0.68617891  0.53254620    -0.02300
C1142       C  0.78794390  0.74559810  0.52718122    -0.02300
C1143       C  0.74090917  0.76473344  0.54345585     0.07600
C1144       C  0.69355527  0.71909537  0.54161641    -0.02500
Br1145     Br  0.61197291  0.72355862  0.53862983    -0.01000
Br1146     Br  0.65492363  0.60302393  0.52226839    -0.01100
Br1147     Br  0.83479262  0.80781368  0.50422971    -0.01100
Br1148     Br  0.88347888  0.68546134  0.52775248    -0.01000
C1149       C  0.65970980  0.82398346  0.64891500    -0.02200
C1150       C  0.62496297  0.77105653  0.64323617     0.07500
C1151       C  0.60248366  0.77917007  0.61113437    -0.02300
C1152       C  0.63790025  0.81099834  0.58458817    -0.02300
C1153       C  0.69699590  0.82746950  0.59027521     0.07600
C1154       C  0.69831222  0.84986099  0.62213425    -0.02500
Br1155     Br  0.71470935  0.93011721  0.61762115    -0.01000
Br1156     Br  0.63284046  0.87332162  0.68181943    -0.01100
Br1157     Br  0.59979827  0.85924139  0.55299911    -0.01100
Br1158     Br  0.52800500  0.80307514  0.61820273    -0.01000
C1159       C  0.72503561  0.68106993  0.70109582    -0.02200
C1160       C  0.69445629  0.71416645  0.67734581     0.07500
C1161       C  0.73121995  0.73857409  0.65292903    -0.02300
C1162       C  0.78550351  0.76002397  0.66032926    -0.02300
C1163       C  0.82062941  0.71994719  0.67480398     0.07600
C1164       C  0.78753032  0.68088603  0.69824356    -0.02500
Br1165     Br  0.82567129  0.63199451  0.72715147    -0.01000
Br1166     Br  0.68256066  0.63293638  0.73381794    -0.01100
Br1167     Br  0.78182223  0.83401598  0.67954197    -0.01100
Br1168     Br  0.71034863  0.71073165  0.61205603    -0.01000
C1169       C  0.86383467  0.60210132  0.65546903    -0.02200
C1170       C  0.89353346  0.65372807  0.64294151     0.07500
C1171       C  0.91554773  0.64073432  0.60943917    -0.02300
C1172       C  0.88066458  0.60192694  0.58809255    -0.02300
C1173       C  0.82286291  0.58165813  0.59813926     0.07600
C1174       C  0.82745624  0.56739379  0.63351470    -0.02500
Br1175     Br  0.83235470  0.48719552  0.64436573    -0.01000
Br1176     Br  0.91244962  0.56202518  0.68655606    -0.01100
Br1177     Br  0.91844812  0.56305087  0.55361203    -0.01100
Br1178     Br  0.97883700  0.68555953  0.58678747    -0.01000
C1179       C  0.88119762  0.83274732  0.63372482    -0.02200
C1180       C  0.89244172  0.77225679  0.63143104     0.07500
C1181       C  0.88232024  0.75824330  0.59854826    -0.02300
C1182       C  0.86505988  0.79518002  0.57350587    -0.02300
C1183       C  0.81821604  0.82816376  0.58240070     0.07600
C1184       C  0.84470167  0.86129938  0.60834435    -0.02500
Br1185     Br  0.88191491  0.92993110  0.58625112    -0.01000
Br1186     Br  0.92342143  0.87803066  0.66525609    -0.01100
Br1187     Br  0.93675573  0.82814067  0.55192450    -0.01100
Br1188     Br  0.82651893  0.70771722  0.59786216    -0.01000
C1189       C  0.65309069  0.60361493  0.83299719    -0.02200
C1190       C  0.61724594  0.64753299  0.83955857     0.07500
C1191       C  0.58907503  0.62513409  0.87064756    -0.02300
C1192       C  0.62262321  0.59934176  0.89820854    -0.02300
C1193       C  0.68359831  0.59518133  0.89332520     0.07600
C1194       C  0.68944475  0.58263277  0.85929328    -0.02500
Br1195     Br  0.70714137  0.50793274  0.85742193    -0.01000
Br1196     Br  0.62548240  0.55312426  0.79870146    -0.01100
Br1197     Br  0.58416470  0.54439992  0.93050541    -0.01100
Br1198     Br  0.52349133  0.57620289  0.85870171    -0.01000
C1199       C  0.77422348  0.67345953  0.81499048    -0.02200
C1200       C  0.81478713  0.71017079  0.79839186     0.07500
C1201       C  0.78667462  0.74041799  0.77126846    -0.02300
C1202       C  0.72177362  0.73847737  0.77029292    -0.02300
C1203       C  0.68791273  0.71475118  0.80077279     0.07600
C1204       C  0.72608282  0.70088536  0.82409679    -0.02500
Br1205     Br  0.73602210  0.78044391  0.83158124    -0.01000
Br1206     Br  0.76456466  0.59931785  0.79602320    -0.01100
Br1207     Br  0.68725250  0.79277789  0.74275663    -0.01100
Br1208     Br  0.83549586  0.79260963  0.74481250    -0.01000
C1209       C  0.82528415  0.57821613  0.86936257    -0.02200
C1210       C  0.79992885  0.61162547  0.89468049     0.07500
C1211       C  0.83469882  0.66386205  0.89446759    -0.02300
C1212       C  0.88717816  0.67613220  0.87799414    -0.02300
C1213       C  0.88453359  0.66804330  0.84352521     0.07600
C1214       C  0.86290672  0.60747105  0.84184366    -0.02500
Br1215     Br  0.89699744  0.56171312  0.80938436    -0.01000
Br1216     Br  0.83774361  0.50062133  0.88210392    -0.01100
Br1217     Br  0.94022077  0.63701503  0.90388088    -0.01100
Br1218     Br  0.79865684  0.71993033  0.88210336    -0.01000
C1219       C  0.80637181  0.74018173  0.94873847    -0.02200
C1220       C  0.76015067  0.77892407  0.94077209     0.07500
C1221       C  0.70995488  0.75292990  0.95856473    -0.02300
C1222       C  0.69608223  0.69062299  0.95822416    -0.02300
C1223       C  0.73915857  0.65476604  0.94554508     0.07600
C1224       C  0.79198645  0.67910305  0.95596731    -0.02500
Br1225     Br  0.84843506  0.62509178  0.96615407    -0.01000
Br1226     Br  0.88991596  0.75480899  0.94525106    -0.01100
Br1227     Br  0.61438416  0.66894149  0.96084961    -0.01100
Br1228     Br  0.65322685  0.80181260  0.97372089    -0.01000
C1229       C  0.66396588  0.86126431  0.86730370    -0.02200
C1230       C  0.69155299  0.82928987  0.89376519     0.07500
C1231       C  0.65168695  0.78168587  0.90038599    -0.02300
C1232       C  0.61044873  0.75631039  0.87861159    -0.02300
C1233       C  0.61391476  0.76842564  0.84333317     0.07600
C1234       C  0.63326942  0.83034476  0.83976495    -0.02500
Br1235     Br  0.61615725  0.87496903  0.80051431    -0.01000
Br1236     Br  0.61351580  0.91178845  0.88668188    -0.01100
Br1237     Br  0.53895302  0.73855020  0.90102251    -0.01100
Br1238     Br  0.67504056  0.71526815  0.89230213    -0.01000
C1239       C  0.86906229  0.83511755  0.89102720    -0.02200
C1240       C  0.81137274  0.84797629  0.88516562     0.07500
C1241       C  0.81570082  0.86595010  0.84909436    -0.02300
C1242       C  0.85064588  0.83745812  0.82499889    -0.02300
C1243       C  0.87740964  0.78747729  0.83530634     0.07600
C1244       C  0.90190035  0.80381218  0.86651664    -0.02500
Br1245     Br  0.97951782  0.83311833  0.85819957    -0.01000
Br1246     Br  0.91014000  0.88780913  0.91990056    -0.01100
Br1247     Br  0.89322410  0.88849173  0.79219873    -0.01100
Br1248     Br  0.77093086  0.91652843  0.82472106    -0.01000
loop_ 
_geom_bond_atom_site_label_1 
_geom_bond_atom_site_label_2 
_geom_bond_distance 
_geom_bond_site_symmetry_2 
_ccdc_geom_bond_type 
C1           C19   1.666       .  S
C1          C128   1.720       .  S
C1          C138   1.725       .  S
C1          C148   1.738       .  S
C2           C33   1.591       .  S
C2          C108   1.629       .  S
C2          C121   1.681       .  S
C2          C151   1.707       .  S
C3           C22   1.618       .  S
C3          C101   1.694       .  S
C3          C118   1.711       .  S
C3          C131   1.681       .  S
C4           C35   1.584       .  S
C4           C98   1.709       .  S
C4          C111   1.662       .  S
C4          C141   1.710       .  S
C5           C36   1.619       .  S
C5           C71   1.639       .  S
C5           C78   1.706       .  S
C5           C88   1.677       .  S
C6           C21   1.595       .  S
C6           C51   1.676       .  S
C6           C61   1.651       .  S
C6           C91   1.730       .  S
C7           C34   1.583       .  S
C7           C41   1.688       .  S
C7           C58   1.684       .  S
C7           C68   1.610       .  S
C8           C20   1.703       .  S
C8           C38   1.774       .  S
C8           C48   1.694       .  S
C8           C81   1.716       .  S
O9           V17   1.982       .  S
O9           C19   1.280       .  A
O10         V485   2.003   1_544  S
O10          C20   1.288       .  A
O11         V173   1.970   1_554  S
O11          C21   1.286       .  A
O12         V329   1.980   1_545  S
O12          C22   1.288       .  A
O13         V330   1.955   1_545  S
O13          C22   1.272       .  A
O14         V174   1.925   1_554  S
O14          C21   1.261       .  A
O15         V486   2.044   1_544  S
O15          C20   1.303       .  A
O16          V18   2.026       .  S
O16          C19   1.300       .  A
V17         O478   2.003       .  S
V17         O167   1.970       .  S
V17         O324   1.980       .  S
V17          V18   2.032       .  T
V18         O325   1.955       .  S
V18         O170   1.925       .  S
V18         O483   2.044       .  S
O23         V655   1.945       .  S
O23          C33   1.275       .  A
O24          V31   1.947   1_455  S
O24          C34   1.272       .  A
O25          V31   1.955   1_455  S
O25          C35   1.276       .  A
O26         V655   1.944       .  S
O26          C36   1.275       .  A
O27         V656   1.987       .  S
O27          C36   1.280       .  A
O28          V32   1.949       .  S
O28          C35   1.276       .  A
O29          V32   1.943       .  S
O29          C34   1.278       .  A
O30         V656   1.963       .  S
O30          C33   1.278       .  A
V31         O647   1.945       .  S
V31         O650   1.944       .  S
V31          V32   2.065   1_655  T
V32         O651   1.987   1_455  S
V32         O654   1.963   1_455  S
C37          C38   1.511       .  A
C37          C42   1.460       .  A
C37         Br44   1.921       .  S
C38          C39   1.455       .  A
C39          C40   1.501       .  A
C39         Br46   1.951       .  S
C40          C41   1.444       .  A
C40         Br45   1.927       .  S
C41          C42   1.394       .  A
C42         Br43   1.972       .  S
C47          C48   1.404       .  A
C47          C52   1.439       .  A
C47         Br54   1.914       .  S
C48          C49   1.497       .  A
C49          C50   1.460       .  A
C49         Br56   1.930       .  S
C50          C51   1.390       .  A
C50         Br55   1.931       .  S
C51          C52   1.480       .  A
C52         Br53   1.938       .  S
C57          C58   1.452       .  A
C57          C62   1.464       .  A
C57         Br64   1.922       .  S
C58          C59   1.408       .  A
C59          C60   1.469       .  A
C59         Br66   1.905       .  S
C60          C61   1.436       .  A
C60         Br65   1.938       .  S
C61          C62   1.399       .  A
C62         Br63   1.881       .  S
C67          C68   1.439       .  A
C67          C72   1.473       .  A
C67         Br74   1.895       .  S
C68          C69   1.362       .  A
C69          C70   1.374       .  A
C69         Br76   1.847       .  S
C70          C71   1.413       .  A
C70         Br75   1.932       .  S
C71          C72   1.444       .  A
C72         Br73   1.881       .  S
C77          C78   1.406       .  A
C77          C82   1.462       .  A
C77         Br84   1.965       .  S
C78          C79   1.480       .  A
C79          C80   1.482       .  A
C79         Br86   1.930       .  S
C80          C81   1.444       .  A
C80         Br85   1.930       .  S
C81          C82   1.446       .  A
C82         Br83   1.917   1_545  S
C87          C88   1.467       .  A
C87          C92   1.511       .  A
C87         Br94   1.921       .  S
C88          C89   1.390       .  A
C89          C90   1.381       .  A
C89         Br96   1.690       .  S
C90          C91   1.447       .  A
C90         Br95   1.959       .  S
C91          C92   1.443       .  A
C92         Br93   1.927       .  S
C97          C98   1.414       .  A
C97         C102   1.462       .  A
C97        Br104   1.936       .  S
C98          C99   1.451       .  A
C99         C100   1.501       .  A
C99        Br106   1.922       .  S
C100        C101   1.457       .  A
C100       Br105   1.931       .  S
C101        C102   1.411       .  A
C102       Br103   1.833       .  S
C107        C108   1.366       .  A
C107        C112   1.399       .  A
C107       Br114   1.921       .  S
C108        C109   1.466       .  A
C109        C110   1.525       .  A
C109       Br116   1.875       .  S
C110        C111   1.499       .  A
C110       Br115   1.888       .  S
C111        C112   1.355       .  A
C112       Br113   1.892       .  S
C117        C118   1.456       .  A
C117        C122   1.499       .  A
C117       Br124   1.909       .  S
C118        C119   1.409       .  A
C119        C120   1.389       .  A
C119       Br126   1.681       .  S
C120        C121   1.401       .  A
C120       Br125   1.904       .  S
C121        C122   1.467       .  A
C122       Br123   1.925       .  S
C127        C128   1.503       .  A
C127        C132   1.452       .  A
C127       Br134   1.967       .  S
C128        C129   1.440       .  A
C129        C130   1.465       .  A
C129       Br136   1.936       .  S
C130        C131   1.467       .  A
C130       Br135   1.945       .  S
C131        C132   1.401       .  A
C132       Br133   1.946       .  S
C137        C138   1.461       .  A
C137        C142   1.507       .  A
C137       Br144   1.922       .  S
C138        C139   1.403       .  A
C139        C140   1.426       .  A
C139       Br146   1.732       .  S
C140        C141   1.425       .  A
C140       Br145   1.895       .  S
C141        C142   1.478       .  A
C142       Br143   1.912       .  S
C147        C148   1.437       .  A
C147        C152   1.492       .  A
C147       Br154   1.938       .  S
C148        C149   1.482       .  A
C149        C150   1.473       .  A
C149       Br156   1.898       .  S
C150        C151   1.422       .  A
C150       Br155   1.934       .  S
C151        C152   1.439       .  A
C152       Br153   1.912       .  S
C157        C175   1.666       .  S
C157        C284   1.720       .  S
C157        C294   1.725       .  S
C157        C304   1.738       .  S
C158        C189   1.591       .  S
C158        C264   1.629       .  S
C158        C277   1.681       .  S
C158        C307   1.707       .  S
C159        C178   1.618       .  S
C159        C257   1.694       .  S
C159        C274   1.711       .  S
C159        C287   1.681       .  S
C160        C191   1.584       .  S
C160        C254   1.709       .  S
C160        C267   1.662       .  S
C160        C297   1.710       .  S
C161        C192   1.619       .  S
C161        C227   1.639       .  S
C161        C234   1.706       .  S
C161        C244   1.677       .  S
C162        C177   1.595       .  S
C162        C207   1.676       .  S
C162        C217   1.651       .  S
C162        C247   1.730       .  S
C163        C190   1.583       .  S
C163        C197   1.688       .  S
C163        C214   1.684       .  S
C163        C224   1.610       .  S
C164        C176   1.703       .  S
C164        C194   1.774       .  S
C164        C204   1.694       .  S
C164        C237   1.716       .  S
O165        V173   1.982       .  S
O165        C175   1.280       .  A
O166        V329   2.003   1_545  S
O166        C176   1.288       .  A
O167        C177   1.286       .  A
O168        V485   1.980   1_545  S
O168        C178   1.288       .  A
O169        V486   1.955   1_545  S
O169        C178   1.272       .  A
O170        C177   1.261       .  A
O171        V330   2.044   1_545  S
O171        C176   1.303       .  A
O172        V174   2.026       .  S
O172        C175   1.300       .  A
V173        O322   2.003   1_556  S
V173        O480   1.980       .  S
V173        V174   2.032       .  T
V174        O481   1.955       .  S
V174        O327   2.044   1_556  S
O179        V811   1.945       .  S
O179        C189   1.275       .  A
O180        V187   1.947   1_455  S
O180        C190   1.272       .  A
O181        V187   1.955   1_455  S
O181        C191   1.276       .  A
O182        V811   1.944       .  S
O182        C192   1.275       .  A
O183        V812   1.987       .  S
O183        C192   1.280       .  A
O184        V188   1.949       .  S
O184        C191   1.276       .  A
O185        V188   1.943       .  S
O185        C190   1.278       .  A
O186        V812   1.963       .  S
O186        C189   1.278       .  A
V187        O803   1.945       .  S
V187        O806   1.944       .  S
V187        V188   2.065   1_655  T
V188        O807   1.987   1_455  S
V188        O810   1.963   1_455  S
C193        C194   1.511       .  A
C193        C198   1.460       .  A
C193       Br200   1.921       .  S
C194        C195   1.455       .  A
C195        C196   1.501       .  A
C195       Br202   1.951       .  S
C196        C197   1.444       .  A
C196       Br201   1.927       .  S
C197        C198   1.394       .  A
C198       Br199   1.972       .  S
C203        C204   1.404       .  A
C203        C208   1.439       .  A
C203       Br210   1.914       .  S
C204        C205   1.497       .  A
C205        C206   1.460       .  A
C205       Br212   1.930       .  S
C206        C207   1.390       .  A
C206       Br211   1.931       .  S
C207        C208   1.480       .  A
C208       Br209   1.938       .  S
C213        C214   1.452       .  A
C213        C218   1.464       .  A
C213       Br220   1.922       .  S
C214        C215   1.408       .  A
C215        C216   1.469       .  A
C215       Br222   1.905       .  S
C216        C217   1.436       .  A
C216       Br221   1.938       .  S
C217        C218   1.399       .  A
C218       Br219   1.881       .  S
C223        C224   1.439       .  A
C223        C228   1.473       .  A
C223       Br230   1.895       .  S
C224        C225   1.362       .  A
C225        C226   1.374       .  A
C225       Br232   1.847       .  S
C226        C227   1.413       .  A
C226       Br231   1.932       .  S
C227        C228   1.444       .  A
C228       Br229   1.881       .  S
C233        C234   1.406       .  A
C233        C238   1.462       .  A
C233       Br240   1.965       .  S
C234        C235   1.480       .  A
C235        C236   1.482       .  A
C235       Br242   1.930       .  S
C236        C237   1.444       .  A
C236       Br241   1.930       .  S
C237        C238   1.446       .  A
C238       Br239   1.917   1_545  S
C243        C244   1.467       .  A
C243        C248   1.511       .  A
C243       Br250   1.921       .  S
C244        C245   1.390       .  A
C245        C246   1.381       .  A
C245       Br252   1.690       .  S
C246        C247   1.447       .  A
C246       Br251   1.959       .  S
C247        C248   1.443       .  A
C248       Br249   1.927       .  S
C253        C254   1.414       .  A
C253        C258   1.462       .  A
C253       Br260   1.936       .  S
C254        C255   1.450       .  A
C255        C256   1.501       .  A
C255       Br262   1.922       .  S
C256        C257   1.457       .  A
C256       Br261   1.931       .  S
C257        C258   1.411       .  A
C258       Br259   1.833       .  S
C263        C264   1.366       .  A
C263        C268   1.399       .  A
C263       Br270   1.921       .  S
C264        C265   1.466       .  A
C265        C266   1.525       .  A
C265       Br272   1.875       .  S
C266        C267   1.499       .  A
C266       Br271   1.888       .  S
C267        C268   1.355       .  A
C268       Br269   1.892       .  S
C273        C274   1.456       .  A
C273        C278   1.499       .  A
C273       Br280   1.909       .  S
C274        C275   1.409       .  A
C275        C276   1.389       .  A
C275       Br282   1.681       .  S
C276        C277   1.401       .  A
C276       Br281   1.904       .  S
C277        C278   1.467       .  A
C278       Br279   1.925       .  S
C283        C284   1.504       .  A
C283        C288   1.452       .  A
C283       Br290   1.967       .  S
C284        C285   1.440       .  A
C285        C286   1.465       .  A
C285       Br292   1.936       .  S
C286        C287   1.467       .  A
C286       Br291   1.945       .  S
C287        C288   1.401       .  A
C288       Br289   1.946       .  S
C293        C294   1.461       .  A
C293        C298   1.507       .  A
C293       Br300   1.922       .  S
C294        C295   1.403       .  A
C295        C296   1.426       .  A
C295       Br302   1.732       .  S
C296        C297   1.424       .  A
C296       Br301   1.895       .  S
C297        C298   1.478       .  A
C298       Br299   1.912       .  S
C303        C304   1.437       .  A
C303        C308   1.492       .  A
C303       Br310   1.938       .  S
C304        C305   1.482       .  A
C305        C306   1.473       .  A
C305       Br312   1.898       .  S
C306        C307   1.422       .  A
C306       Br311   1.934       .  S
C307        C308   1.439       .  A
C308       Br309   1.912       .  S
C313        C331   1.666       .  S
C313        C440   1.720       .  S
C313        C450   1.725       .  S
C313        C460   1.738       .  S
C314        C345   1.591       .  S
C314        C420   1.629       .  S
C314        C433   1.681       .  S
C314        C463   1.707       .  S
C315        C334   1.618       .  S
C315        C413   1.694       .  S
C315        C430   1.711       .  S
C315        C443   1.681       .  S
C316        C347   1.584       .  S
C316        C410   1.709       .  S
C316        C423   1.662       .  S
C316        C453   1.710       .  S
C317        C348   1.619       .  S
C317        C383   1.639       .  S
C317        C390   1.706       .  S
C317        C400   1.677       .  S
C318        C333   1.595       .  S
C318        C363   1.676       .  S
C318        C373   1.651       .  S
C318        C403   1.730       .  S
C319        C346   1.583       .  S
C319        C353   1.688       .  S
C319        C370   1.684       .  S
C319        C380   1.610       .  S
C320        C332   1.703       .  S
C320        C350   1.774       .  S
C320        C360   1.694       .  S
C320        C393   1.716       .  S
O321        V329   1.982       .  S
O321        C331   1.280       .  A
O322        C332   1.288       .  A
O323        V485   1.970   1_554  S
O323        C333   1.286       .  A
O324        C334   1.288       .  A
O325        C334   1.272       .  A
O326        V486   1.925   1_554  S
O326        C333   1.261       .  A
O327        C332   1.303       .  A
O328        V330   2.026       .  S
O328        C331   1.300       .  A
V329        O479   1.970       .  S
V329        V330   2.032       .  T
V330        O482   1.925       .  S
O335        V967   1.945       .  S
O335        C345   1.275       .  A
O336        V343   1.947   1_455  S
O336        C346   1.272       .  A
O337        V343   1.955   1_455  S
O337        C347   1.276       .  A
O338        V967   1.944       .  S
O338        C348   1.275       .  A
O339        V968   1.987       .  S
O339        C348   1.280       .  A
O340        V344   1.949       .  S
O340        C347   1.276       .  A
O341        V344   1.943       .  S
O341        C346   1.278       .  A
O342        V968   1.963       .  S
O342        C345   1.278       .  A
V343        O959   1.945       .  S
V343        O962   1.944       .  S
V343        V344   2.065   1_655  T
V344        O963   1.987   1_455  S
V344        O966   1.963   1_455  S
C349        C350   1.511       .  A
C349        C354   1.460       .  A
C349       Br356   1.921       .  S
C350        C351   1.455       .  A
C351        C352   1.501       .  A
C351       Br358   1.951       .  S
C352        C353   1.444       .  A
C352       Br357   1.927       .  S
C353        C354   1.394       .  A
C354       Br355   1.972       .  S
C359        C360   1.404       .  A
C359        C364   1.439       .  A
C359       Br366   1.914       .  S
C360        C361   1.497       .  A
C361        C362   1.460       .  A
C361       Br368   1.930       .  S
C362        C363   1.390       .  A
C362       Br367   1.931       .  S
C363        C364   1.480       .  A
C364       Br365   1.938       .  S
C369        C370   1.452       .  A
C369        C374   1.464       .  A
C369       Br376   1.922       .  S
C370        C371   1.408       .  A
C371        C372   1.469       .  A
C371       Br378   1.905       .  S
C372        C373   1.436       .  A
C372       Br377   1.938       .  S
C373        C374   1.399       .  A
C374       Br375   1.881       .  S
C379        C380   1.439       .  A
C379        C384   1.473       .  A
C379       Br386   1.895       .  S
C380        C381   1.362       .  A
C381        C382   1.374       .  A
C381       Br388   1.847       .  S
C382        C383   1.413       .  A
C382       Br387   1.932       .  S
C383        C384   1.444       .  A
C384       Br385   1.881       .  S
C389        C390   1.406       .  A
C389        C394   1.462       .  A
C389       Br396   1.965       .  S
C390        C391   1.480       .  A
C391        C392   1.482       .  A
C391       Br398   1.930       .  S
C392        C393   1.444       .  A
C392       Br397   1.930       .  S
C393        C394   1.446       .  A
C394       Br395   1.917       .  S
C399        C400   1.467       .  A
C399        C404   1.511       .  A
C399       Br406   1.921       .  S
C400        C401   1.390       .  A
C401        C402   1.381       .  A
C401       Br408   1.690       .  S
C402        C403   1.447       .  A
C402       Br407   1.959       .  S
C403        C404   1.443       .  A
C404       Br405   1.927       .  S
C409        C410   1.414       .  A
C409        C414   1.462       .  A
C409       Br416   1.936       .  S
C410        C411   1.451       .  A
C411        C412   1.501       .  A
C411       Br418   1.922       .  S
C412        C413   1.457       .  A
C412       Br417   1.931       .  S
C413        C414   1.412       .  A
C414       Br415   1.833       .  S
C419        C420   1.366       .  A
C419        C424   1.399       .  A
C419       Br426   1.921       .  S
C420        C421   1.466       .  A
C421        C422   1.525       .  A
C421       Br428   1.875       .  S
C422        C423   1.499       .  A
C422       Br427   1.888       .  S
C423        C424   1.355       .  A
C424       Br425   1.892       .  S
C429        C430   1.456       .  A
C429        C434   1.499       .  A
C429       Br436   1.909       .  S
C430        C431   1.409       .  A
C431        C432   1.389       .  A
C431       Br438   1.681       .  S
C432        C433   1.401       .  A
C432       Br437   1.904       .  S
C433        C434   1.467       .  A
C434       Br435   1.925       .  S
C439        C440   1.503       .  A
C439        C444   1.452       .  A
C439       Br446   1.967       .  S
C440        C441   1.440       .  A
C441        C442   1.465       .  A
C441       Br448   1.936       .  S
C442        C443   1.467       .  A
C442       Br447   1.945       .  S
C443        C444   1.401       .  A
C444       Br445   1.946       .  S
C449        C450   1.461       .  A
C449        C454   1.507       .  A
C449       Br456   1.922       .  S
C450        C451   1.403       .  A
C451        C452   1.426       .  A
C451       Br458   1.732       .  S
C452        C453   1.425       .  A
C452       Br457   1.895       .  S
C453        C454   1.478       .  A
C454       Br455   1.912       .  S
C459        C460   1.437       .  A
C459        C464   1.492       .  A
C459       Br466   1.938       .  S
C460        C461   1.482       .  A
C461        C462   1.473       .  A
C461       Br468   1.898       .  S
C462        C463   1.422       .  A
C462       Br467   1.934       .  S
C463        C464   1.439       .  A
C464       Br465   1.912       .  S
C469        C487   1.666       .  S
C469        C596   1.720       .  S
C469        C606   1.725       .  S
C469        C616   1.738       .  S
C470        C501   1.591       .  S
C470        C576   1.629       .  S
C470        C589   1.681       .  S
C470        C619   1.707       .  S
C471        C490   1.618       .  S
C471        C569   1.694       .  S
C471        C586   1.711       .  S
C471        C599   1.681       .  S
C472        C503   1.584       .  S
C472        C566   1.709       .  S
C472        C579   1.662       .  S
C472        C609   1.710       .  S
C473        C504   1.619       .  S
C473        C539   1.639       .  S
C473        C546   1.706       .  S
C473        C556   1.677       .  S
C474        C489   1.595       .  S
C474        C519   1.676       .  S
C474        C529   1.651       .  S
C474        C559   1.730       .  S
C475        C502   1.583       .  S
C475        C509   1.688       .  S
C475        C526   1.684       .  S
C475        C536   1.610       .  S
C476        C488   1.703       .  S
C476        C506   1.774       .  S
C476        C516   1.694       .  S
C476        C549   1.716       .  S
O477        V485   1.982       .  S
O477        C487   1.280       .  A
O478        C488   1.288       .  A
O479        C489   1.286       .  A
O480        C490   1.288       .  A
O481        C490   1.272       .  A
O482        C489   1.261       .  A
O483        C488   1.303       .  A
O484        V486   2.026       .  S
O484        C487   1.300       .  A
V485        V486   2.032       .  T
O491       V1123   1.945       .  S
O491        C501   1.275       .  A
O492        V499   1.947   1_455  S
O492        C502   1.272       .  A
O493        V499   1.955   1_455  S
O493        C503   1.276       .  A
O494       V1123   1.944       .  S
O494        C504   1.275       .  A
O495       V1124   1.987       .  S
O495        C504   1.280       .  A
O496        V500   1.949       .  S
O496        C503   1.276       .  A
O497        V500   1.943       .  S
O497        C502   1.278       .  A
O498       V1124   1.963       .  S
O498        C501   1.278       .  A
V499       O1115   1.945       .  S
V499       O1118   1.944       .  S
V499        V500   2.065   1_655  T
V500       O1119   1.987   1_455  S
V500       O1122   1.963   1_455  S
C505        C506   1.511       .  A
C505        C510   1.460       .  A
C505       Br512   1.921       .  S
C506        C507   1.455       .  A
C507        C508   1.501       .  A
C507       Br514   1.951       .  S
C508        C509   1.444       .  A
C508       Br513   1.927       .  S
C509        C510   1.394       .  A
C510       Br511   1.972       .  S
C515        C516   1.404       .  A
C515        C520   1.439       .  A
C515       Br522   1.914       .  S
C516        C517   1.497       .  A
C517        C518   1.460       .  A
C517       Br524   1.930       .  S
C518        C519   1.390       .  A
C518       Br523   1.931       .  S
C519        C520   1.480       .  A
C520       Br521   1.938       .  S
C525        C526   1.452       .  A
C525        C530   1.464       .  A
C525       Br532   1.922       .  S
C526        C527   1.408       .  A
C527        C528   1.469       .  A
C527       Br534   1.905       .  S
C528        C529   1.436       .  A
C528       Br533   1.938       .  S
C529        C530   1.399       .  A
C530       Br531   1.881       .  S
C535        C536   1.439       .  A
C535        C540   1.473       .  A
C535       Br542   1.895       .  S
C536        C537   1.362       .  A
C537        C538   1.374       .  A
C537       Br544   1.847       .  S
C538        C539   1.413       .  A
C538       Br543   1.932       .  S
C539        C540   1.444       .  A
C540       Br541   1.881       .  S
C545        C546   1.406       .  A
C545        C550   1.462       .  A
C545       Br552   1.965       .  S
C546        C547   1.480       .  A
C547        C548   1.482       .  A
C547       Br554   1.930       .  S
C548        C549   1.444       .  A
C548       Br553   1.930       .  S
C549        C550   1.446       .  A
C550       Br551   1.917       .  S
C555        C556   1.467       .  A
C555        C560   1.511       .  A
C555       Br562   1.921       .  S
C556        C557   1.390       .  A
C557        C558   1.381       .  A
C557       Br564   1.690       .  S
C558        C559   1.447       .  A
C558       Br563   1.959       .  S
C559        C560   1.443       .  A
C560       Br561   1.927       .  S
C565        C566   1.414       .  A
C565        C570   1.462       .  A
C565       Br572   1.936       .  S
C566        C567   1.450       .  A
C567        C568   1.501       .  A
C567       Br574   1.922       .  S
C568        C569   1.457       .  A
C568       Br573   1.931       .  S
C569        C570   1.412       .  A
C570       Br571   1.833       .  S
C575        C576   1.366       .  A
C575        C580   1.399       .  A
C575       Br582   1.921       .  S
C576        C577   1.466       .  A
C577        C578   1.525       .  A
C577       Br584   1.875       .  S
C578        C579   1.499       .  A
C578       Br583   1.888       .  S
C579        C580   1.355       .  A
C580       Br581   1.892       .  S
C585        C586   1.456       .  A
C585        C590   1.499       .  A
C585       Br592   1.909       .  S
C586        C587   1.409       .  A
C587        C588   1.389       .  A
C587       Br594   1.681       .  S
C588        C589   1.401       .  A
C588       Br593   1.904       .  S
C589        C590   1.467       .  A
C590       Br591   1.925       .  S
C595        C596   1.503       .  A
C595        C600   1.452       .  A
C595       Br602   1.967       .  S
C596        C597   1.440       .  A
C597        C598   1.465       .  A
C597       Br604   1.936       .  S
C598        C599   1.467       .  A
C598       Br603   1.945       .  S
C599        C600   1.401       .  A
C600       Br601   1.946       .  S
C605        C606   1.461       .  A
C605        C610   1.507       .  A
C605       Br612   1.922       .  S
C606        C607   1.403       .  A
C607        C608   1.426       .  A
C607       Br614   1.732       .  S
C608        C609   1.425       .  A
C608       Br613   1.895       .  S
C609        C610   1.478       .  A
C610       Br611   1.912       .  S
C615        C616   1.437       .  A
C615        C620   1.492       .  A
C615       Br622   1.938       .  S
C616        C617   1.482       .  A
C617        C618   1.473       .  A
C617       Br624   1.898       .  S
C618        C619   1.422       .  A
C618       Br623   1.934       .  S
C619        C620   1.439       .  A
C620       Br621   1.912       .  S
C625        C643   1.666       .  S
C625        C752   1.720       .  S
C625        C762   1.725       .  S
C625        C772   1.738       .  S
C626        C657   1.591       .  S
C626        C732   1.629       .  S
C626        C745   1.681       .  S
C626        C775   1.707       .  S
C627        C646   1.618       .  S
C627        C725   1.694       .  S
C627        C742   1.711       .  S
C627        C755   1.681       .  S
C628        C659   1.584       .  S
C628        C722   1.709       .  S
C628        C735   1.662       .  S
C628        C765   1.710       .  S
C629        C660   1.619       .  S
C629        C695   1.639       .  S
C629        C702   1.706       .  S
C629        C712   1.677       .  S
C630        C645   1.595       .  S
C630        C675   1.676       .  S
C630        C685   1.651       .  S
C630        C715   1.730       .  S
C631        C658   1.583       .  S
C631        C665   1.688       .  S
C631        C682   1.684       .  S
C631        C692   1.610       .  S
C632        C644   1.703       .  S
C632        C662   1.774       .  S
C632        C672   1.694       .  S
C632        C705   1.716       .  S
O633        V641   1.982       .  S
O633        C643   1.280       .  A
O634       V1109   2.003   1_544  S
O634        C644   1.288       .  A
O635        V797   1.970   1_554  S
O635        C645   1.286       .  A
O636        V953   1.980   1_545  S
O636        C646   1.288       .  A
O637        V954   1.955   1_545  S
O637        C646   1.272       .  A
O638        V798   1.925   1_554  S
O638        C645   1.261       .  A
O639       V1110   2.044   1_544  S
O639        C644   1.303       .  A
O640        V642   2.026       .  S
O640        C643   1.300       .  A
V641       O1102   2.003       .  S
V641        O791   1.970       .  S
V641        O948   1.980       .  S
V641        V642   2.032       .  T
V642        O949   1.955       .  S
V642        O794   1.925       .  S
V642       O1107   2.044       .  S
O647        C657   1.275       .  A
O648        V655   1.947       .  S
O648        C658   1.272       .  A
O649        V655   1.955       .  S
O649        C659   1.276       .  A
O650        C660   1.275       .  A
O651        C660   1.280       .  A
O652        V656   1.949       .  S
O652        C659   1.276       .  A
O653        V656   1.943       .  S
O653        C658   1.278       .  A
O654        C657   1.278       .  A
V655        V656   2.065       .  T
C661        C662   1.511       .  A
C661        C666   1.460       .  A
C661       Br668   1.921       .  S
C662        C663   1.455       .  A
C663        C664   1.501       .  A
C663       Br670   1.951       .  S
C664        C665   1.444       .  A
C664       Br669   1.927       .  S
C665        C666   1.394       .  A
C666       Br667   1.972       .  S
C671        C672   1.404       .  A
C671        C676   1.439       .  A
C671       Br678   1.914       .  S
C672        C673   1.497       .  A
C673        C674   1.460       .  A
C673       Br680   1.930       .  S
C674        C675   1.390       .  A
C674       Br679   1.931       .  S
C675        C676   1.480       .  A
C676       Br677   1.938       .  S
C681        C682   1.452       .  A
C681        C686   1.464       .  A
C681       Br688   1.922       .  S
C682        C683   1.408       .  A
C683        C684   1.469       .  A
C683       Br690   1.905       .  S
C684        C685   1.436       .  A
C684       Br689   1.938       .  S
C685        C686   1.399       .  A
C686       Br687   1.881       .  S
C691        C692   1.439       .  A
C691        C696   1.473       .  A
C691       Br698   1.895       .  S
C692        C693   1.362       .  A
C693        C694   1.374       .  A
C693       Br700   1.847       .  S
C694        C695   1.413       .  A
C694       Br699   1.932       .  S
C695        C696   1.444       .  A
C696       Br697   1.881       .  S
C701        C702   1.406       .  A
C701        C706   1.462       .  A
C701       Br708   1.965       .  S
C702        C703   1.480       .  A
C703        C704   1.482       .  A
C703       Br710   1.930       .  S
C704        C705   1.444       .  A
C704       Br709   1.930       .  S
C705        C706   1.446       .  A
C706       Br707   1.917   1_545  S
C711        C712   1.467       .  A
C711        C716   1.511       .  A
C711       Br718   1.921       .  S
C712        C713   1.390       .  A
C713        C714   1.381       .  A
C713       Br720   1.690       .  S
C714        C715   1.447       .  A
C714       Br719   1.959       .  S
C715        C716   1.443       .  A
C716       Br717   1.927       .  S
C721        C722   1.414       .  A
C721        C726   1.462       .  A
C721       Br728   1.936       .  S
C722        C723   1.451       .  A
C723        C724   1.501       .  A
C723       Br730   1.922       .  S
C724        C725   1.457       .  A
C724       Br729   1.931       .  S
C725        C726   1.411       .  A
C726       Br727   1.833       .  S
C731        C732   1.366       .  A
C731        C736   1.399       .  A
C731       Br738   1.921       .  S
C732        C733   1.466       .  A
C733        C734   1.525       .  A
C733       Br740   1.875       .  S
C734        C735   1.499       .  A
C734       Br739   1.888       .  S
C735        C736   1.355       .  A
C736       Br737   1.892       .  S
C741        C742   1.456       .  A
C741        C746   1.499       .  A
C741       Br748   1.909       .  S
C742        C743   1.409       .  A
C743        C744   1.389       .  A
C743       Br750   1.681       .  S
C744        C745   1.401       .  A
C744       Br749   1.904       .  S
C745        C746   1.467       .  A
C746       Br747   1.925       .  S
C751        C752   1.503       .  A
C751        C756   1.452       .  A
C751       Br758   1.967       .  S
C752        C753   1.440       .  A
C753        C754   1.465       .  A
C753       Br760   1.936       .  S
C754        C755   1.467       .  A
C754       Br759   1.945       .  S
C755        C756   1.401       .  A
C756       Br757   1.946       .  S
C761        C762   1.461       .  A
C761        C766   1.507       .  A
C761       Br768   1.922       .  S
C762        C763   1.403       .  A
C763        C764   1.426       .  A
C763       Br770   1.732       .  S
C764        C765   1.425       .  A
C764       Br769   1.895       .  S
C765        C766   1.478       .  A
C766       Br767   1.912       .  S
C771        C772   1.437       .  A
C771        C776   1.492       .  A
C771       Br778   1.938       .  S
C772        C773   1.482       .  A
C773        C774   1.473       .  A
C773       Br780   1.898       .  S
C774        C775   1.422       .  A
C774       Br779   1.934       .  S
C775        C776   1.439       .  A
C776       Br777   1.912       .  S
C781        C799   1.666       .  S
C781        C908   1.720       .  S
C781        C918   1.725       .  S
C781        C928   1.738       .  S
C782        C813   1.591       .  S
C782        C888   1.629       .  S
C782        C901   1.681       .  S
C782        C931   1.707       .  S
C783        C802   1.618       .  S
C783        C881   1.694       .  S
C783        C898   1.711       .  S
C783        C911   1.681       .  S
C784        C815   1.584       .  S
C784        C878   1.709       .  S
C784        C891   1.662       .  S
C784        C921   1.710       .  S
C785        C816   1.619       .  S
C785        C851   1.639       .  S
C785        C858   1.706       .  S
C785        C868   1.677       .  S
C786        C801   1.595       .  S
C786        C831   1.676       .  S
C786        C841   1.651       .  S
C786        C871   1.730       .  S
C787        C814   1.583       .  S
C787        C821   1.688       .  S
C787        C838   1.684       .  S
C787        C848   1.610       .  S
C788        C800   1.703       .  S
C788        C818   1.774       .  S
C788        C828   1.694       .  S
C788        C861   1.716       .  S
O789        V797   1.982       .  S
O789        C799   1.280       .  A
O790        V953   2.003   1_545  S
O790        C800   1.288       .  A
O791        C801   1.286       .  A
O792       V1109   1.980   1_545  S
O792        C802   1.288       .  A
O793       V1110   1.955   1_545  S
O793        C802   1.272       .  A
O794        C801   1.261       .  A
O795        V954   2.044   1_545  S
O795        C800   1.303       .  A
O796        V798   2.026       .  S
O796        C799   1.300       .  A
V797        O946   2.003   1_556  S
V797       O1104   1.980       .  S
V797        V798   2.032       .  T
V798       O1105   1.955       .  S
V798        O951   2.044   1_556  S
O803        C813   1.275       .  A
O804        V811   1.947       .  S
O804        C814   1.272       .  A
O805        V811   1.955       .  S
O805        C815   1.276       .  A
O806        C816   1.275       .  A
O807        C816   1.280       .  A
O808        V812   1.949       .  S
O808        C815   1.276       .  A
O809        V812   1.943       .  S
O809        C814   1.278       .  A
O810        C813   1.278       .  A
V811        V812   2.065       .  T
C817        C818   1.511       .  A
C817        C822   1.460       .  A
C817       Br824   1.921       .  S
C818        C819   1.455       .  A
C819        C820   1.501       .  A
C819       Br826   1.951       .  S
C820        C821   1.444       .  A
C820       Br825   1.927       .  S
C821        C822   1.394       .  A
C822       Br823   1.972       .  S
C827        C828   1.404       .  A
C827        C832   1.439       .  A
C827       Br834   1.914       .  S
C828        C829   1.497       .  A
C829        C830   1.460       .  A
C829       Br836   1.930       .  S
C830        C831   1.390       .  A
C830       Br835   1.931       .  S
C831        C832   1.480       .  A
C832       Br833   1.938       .  S
C837        C838   1.452       .  A
C837        C842   1.464       .  A
C837       Br844   1.922       .  S
C838        C839   1.408       .  A
C839        C840   1.469       .  A
C839       Br846   1.905       .  S
C840        C841   1.436       .  A
C840       Br845   1.938       .  S
C841        C842   1.399       .  A
C842       Br843   1.881       .  S
C847        C848   1.439       .  A
C847        C852   1.473       .  A
C847       Br854   1.895       .  S
C848        C849   1.362       .  A
C849        C850   1.374       .  A
C849       Br856   1.847       .  S
C850        C851   1.413       .  A
C850       Br855   1.932       .  S
C851        C852   1.444       .  A
C852       Br853   1.881       .  S
C857        C858   1.406       .  A
C857        C862   1.462       .  A
C857       Br864   1.965       .  S
C858        C859   1.480       .  A
C859        C860   1.482       .  A
C859       Br866   1.930       .  S
C860        C861   1.444       .  A
C860       Br865   1.930       .  S
C861        C862   1.446       .  A
C862       Br863   1.917   1_545  S
C867        C868   1.467       .  A
C867        C872   1.511       .  A
C867       Br874   1.921       .  S
C868        C869   1.390       .  A
C869        C870   1.381       .  A
C869       Br876   1.690       .  S
C870        C871   1.447       .  A
C870       Br875   1.959       .  S
C871        C872   1.443       .  A
C872       Br873   1.927       .  S
C877        C878   1.414       .  A
C877        C882   1.462       .  A
C877       Br884   1.936       .  S
C878        C879   1.450       .  A
C879        C880   1.501       .  A
C879       Br886   1.922       .  S
C880        C881   1.457       .  A
C880       Br885   1.931       .  S
C881        C882   1.412       .  A
C882       Br883   1.833       .  S
C887        C888   1.366       .  A
C887        C892   1.399       .  A
C887       Br894   1.921       .  S
C888        C889   1.466       .  A
C889        C890   1.525       .  A
C889       Br896   1.875       .  S
C890        C891   1.499       .  A
C890       Br895   1.888       .  S
C891        C892   1.355       .  A
C892       Br893   1.892       .  S
C897        C898   1.456       .  A
C897        C902   1.499       .  A
C897       Br904   1.909       .  S
C898        C899   1.409       .  A
C899        C900   1.389       .  A
C899       Br906   1.681       .  S
C900        C901   1.401       .  A
C900       Br905   1.904       .  S
C901        C902   1.467       .  A
C902       Br903   1.925       .  S
C907        C908   1.503       .  A
C907        C912   1.452       .  A
C907       Br914   1.967       .  S
C908        C909   1.440       .  A
C909        C910   1.465       .  A
C909       Br916   1.936       .  S
C910        C911   1.467       .  A
C910       Br915   1.945       .  S
C911        C912   1.401       .  A
C912       Br913   1.946       .  S
C917        C918   1.461       .  A
C917        C922   1.507       .  A
C917       Br924   1.922       .  S
C918        C919   1.403       .  A
C919        C920   1.426       .  A
C919       Br926   1.732       .  S
C920        C921   1.425       .  A
C920       Br925   1.895       .  S
C921        C922   1.478       .  A
C922       Br923   1.912       .  S
C927        C928   1.437       .  A
C927        C932   1.492       .  A
C927       Br934   1.938       .  S
C928        C929   1.482       .  A
C929        C930   1.473       .  A
C929       Br936   1.898       .  S
C930        C931   1.422       .  A
C930       Br935   1.934       .  S
C931        C932   1.439       .  A
C932       Br933   1.912       .  S
C937        C955   1.666       .  S
C937       C1064   1.720       .  S
C937       C1074   1.725       .  S
C937       C1084   1.738       .  S
C938        C969   1.591       .  S
C938       C1044   1.629       .  S
C938       C1057   1.681       .  S
C938       C1087   1.707       .  S
C939        C958   1.618       .  S
C939       C1037   1.694       .  S
C939       C1054   1.711       .  S
C939       C1067   1.681       .  S
C940        C971   1.584       .  S
C940       C1034   1.709       .  S
C940       C1047   1.662       .  S
C940       C1077   1.710       .  S
C941        C972   1.619       .  S
C941       C1007   1.639       .  S
C941       C1014   1.706       .  S
C941       C1024   1.677       .  S
C942        C957   1.595       .  S
C942        C987   1.676       .  S
C942        C997   1.651       .  S
C942       C1027   1.730       .  S
C943        C970   1.583       .  S
C943        C977   1.688       .  S
C943        C994   1.684       .  S
C943       C1004   1.610       .  S
C944        C956   1.703       .  S
C944        C974   1.774       .  S
C944        C984   1.694       .  S
C944       C1017   1.716       .  S
O945        V953   1.982       .  S
O945        C955   1.280       .  A
O946        C956   1.288       .  A
O947       V1109   1.970   1_554  S
O947        C957   1.286       .  A
O948        C958   1.288       .  A
O949        C958   1.272       .  A
O950       V1110   1.925   1_554  S
O950        C957   1.261       .  A
O951        C956   1.303       .  A
O952        V954   2.026       .  S
O952        C955   1.300       .  A
V953       O1103   1.970       .  S
V953        V954   2.032       .  T
V954       O1106   1.925       .  S
O959        C969   1.275       .  A
O960        V967   1.947       .  S
O960        C970   1.272       .  A
O961        V967   1.955       .  S
O961        C971   1.276       .  A
O962        C972   1.275       .  A
O963        C972   1.280       .  A
O964        V968   1.949       .  S
O964        C971   1.276       .  A
O965        V968   1.943       .  S
O965        C970   1.278       .  A
O966        C969   1.278       .  A
V967        V968   2.065       .  T
C973        C974   1.511       .  A
C973        C978   1.460       .  A
C973       Br980   1.921       .  S
C974        C975   1.455       .  A
C975        C976   1.501       .  A
C975       Br982   1.951       .  S
C976        C977   1.444       .  A
C976       Br981   1.927       .  S
C977        C978   1.394       .  A
C978       Br979   1.972       .  S
C983        C984   1.404       .  A
C983        C988   1.439       .  A
C983       Br990   1.914       .  S
C984        C985   1.497       .  A
C985        C986   1.460       .  A
C985       Br992   1.930       .  S
C986        C987   1.390       .  A
C986       Br991   1.931       .  S
C987        C988   1.480       .  A
C988       Br989   1.938       .  S
C993        C994   1.452       .  A
C993        C998   1.464       .  A
C993      Br1000   1.922       .  S
C994        C995   1.408       .  A
C995        C996   1.469       .  A
C995      Br1002   1.905       .  S
C996        C997   1.436       .  A
C996      Br1001   1.938       .  S
C997        C998   1.399       .  A
C998       Br999   1.881       .  S
C1003      C1004   1.439       .  A
C1003      C1008   1.473       .  A
C1003     Br1010   1.895       .  S
C1004      C1005   1.362       .  A
C1005      C1006   1.374       .  A
C1005     Br1012   1.847       .  S
C1006      C1007   1.413       .  A
C1006     Br1011   1.932       .  S
C1007      C1008   1.444       .  A
C1008     Br1009   1.881       .  S
C1013      C1014   1.406       .  A
C1013      C1018   1.462       .  A
C1013     Br1020   1.965       .  S
C1014      C1015   1.480       .  A
C1015      C1016   1.482       .  A
C1015     Br1022   1.930       .  S
C1016      C1017   1.444       .  A
C1016     Br1021   1.930       .  S
C1017      C1018   1.446       .  A
C1018     Br1019   1.917       .  S
C1023      C1024   1.467       .  A
C1023      C1028   1.511       .  A
C1023     Br1030   1.921       .  S
C1024      C1025   1.390       .  A
C1025      C1026   1.381       .  A
C1025     Br1032   1.690       .  S
C1026      C1027   1.447       .  A
C1026     Br1031   1.959       .  S
C1027      C1028   1.443       .  A
C1028     Br1029   1.927       .  S
C1033      C1034   1.414       .  A
C1033      C1038   1.462       .  A
C1033     Br1040   1.936       .  S
C1034      C1035   1.451       .  A
C1035      C1036   1.501       .  A
C1035     Br1042   1.922       .  S
C1036      C1037   1.457       .  A
C1036     Br1041   1.931       .  S
C1037      C1038   1.412       .  A
C1038     Br1039   1.833       .  S
C1043      C1044   1.366       .  A
C1043      C1048   1.399       .  A
C1043     Br1050   1.921       .  S
C1044      C1045   1.466       .  A
C1045      C1046   1.525       .  A
C1045     Br1052   1.875       .  S
C1046      C1047   1.499       .  A
C1046     Br1051   1.888       .  S
C1047      C1048   1.355       .  A
C1048     Br1049   1.892       .  S
C1053      C1054   1.456       .  A
C1053      C1058   1.499       .  A
C1053     Br1060   1.909       .  S
C1054      C1055   1.409       .  A
C1055      C1056   1.389       .  A
C1055     Br1062   1.681       .  S
C1056      C1057   1.401       .  A
C1056     Br1061   1.904       .  S
C1057      C1058   1.467       .  A
C1058     Br1059   1.925       .  S
C1063      C1064   1.503       .  A
C1063      C1068   1.452       .  A
C1063     Br1070   1.967       .  S
C1064      C1065   1.440       .  A
C1065      C1066   1.465       .  A
C1065     Br1072   1.936       .  S
C1066      C1067   1.467       .  A
C1066     Br1071   1.945       .  S
C1067      C1068   1.401       .  A
C1068     Br1069   1.946       .  S
C1073      C1074   1.461       .  A
C1073      C1078   1.507       .  A
C1073     Br1080   1.922       .  S
C1074      C1075   1.403       .  A
C1075      C1076   1.426       .  A
C1075     Br1082   1.732       .  S
C1076      C1077   1.425       .  A
C1076     Br1081   1.895       .  S
C1077      C1078   1.478       .  A
C1078     Br1079   1.912       .  S
C1083      C1084   1.437       .  A
C1083      C1088   1.492       .  A
C1083     Br1090   1.938       .  S
C1084      C1085   1.482       .  A
C1085      C1086   1.473       .  A
C1085     Br1092   1.898       .  S
C1086      C1087   1.422       .  A
C1086     Br1091   1.934       .  S
C1087      C1088   1.439       .  A
C1088     Br1089   1.912       .  S
C1093      C1111   1.666       .  S
C1093      C1220   1.720       .  S
C1093      C1230   1.725       .  S
C1093      C1240   1.738       .  S
C1094      C1125   1.591       .  S
C1094      C1200   1.629       .  S
C1094      C1213   1.681       .  S
C1094      C1243   1.707       .  S
C1095      C1114   1.618       .  S
C1095      C1193   1.694       .  S
C1095      C1210   1.711       .  S
C1095      C1223   1.681       .  S
C1096      C1127   1.584       .  S
C1096      C1190   1.709       .  S
C1096      C1203   1.662       .  S
C1096      C1233   1.710       .  S
C1097      C1128   1.619       .  S
C1097      C1163   1.639       .  S
C1097      C1170   1.706       .  S
C1097      C1180   1.677       .  S
C1098      C1113   1.595       .  S
C1098      C1143   1.676       .  S
C1098      C1153   1.651       .  S
C1098      C1183   1.730       .  S
C1099      C1126   1.583       .  S
C1099      C1133   1.688       .  S
C1099      C1150   1.684       .  S
C1099      C1160   1.610       .  S
C1100      C1112   1.703       .  S
C1100      C1130   1.774       .  S
C1100      C1140   1.694       .  S
C1100      C1173   1.716       .  S
O1101      V1109   1.982       .  S
O1101      C1111   1.280       .  A
O1102      C1112   1.288       .  A
O1103      C1113   1.286       .  A
O1104      C1114   1.288       .  A
O1105      C1114   1.272       .  A
O1106      C1113   1.261       .  A
O1107      C1112   1.303       .  A
O1108      V1110   2.026       .  S
O1108      C1111   1.300       .  A
V1109      V1110   2.032       .  T
O1115      C1125   1.275       .  A
O1116      V1123   1.947       .  S
O1116      C1126   1.272       .  A
O1117      V1123   1.955       .  S
O1117      C1127   1.276       .  A
O1118      C1128   1.275       .  A
O1119      C1128   1.280       .  A
O1120      V1124   1.949       .  S
O1120      C1127   1.276       .  A
O1121      V1124   1.943       .  S
O1121      C1126   1.278       .  A
O1122      C1125   1.278       .  A
V1123      V1124   2.065       .  T
C1129      C1130   1.511       .  A
C1129      C1134   1.460       .  A
C1129     Br1136   1.921       .  S
C1130      C1131   1.455       .  A
C1131      C1132   1.501       .  A
C1131     Br1138   1.951       .  S
C1132      C1133   1.444       .  A
C1132     Br1137   1.927       .  S
C1133      C1134   1.394       .  A
C1134     Br1135   1.972       .  S
C1139      C1140   1.404       .  A
C1139      C1144   1.439       .  A
C1139     Br1146   1.914       .  S
C1140      C1141   1.497       .  A
C1141      C1142   1.460       .  A
C1141     Br1148   1.930       .  S
C1142      C1143   1.390       .  A
C1142     Br1147   1.931       .  S
C1143      C1144   1.480       .  A
C1144     Br1145   1.938       .  S
C1149      C1150   1.452       .  A
C1149      C1154   1.464       .  A
C1149     Br1156   1.922       .  S
C1150      C1151   1.408       .  A
C1151      C1152   1.469       .  A
C1151     Br1158   1.905       .  S
C1152      C1153   1.436       .  A
C1152     Br1157   1.938       .  S
C1153      C1154   1.399       .  A
C1154     Br1155   1.881       .  S
C1159      C1160   1.439       .  A
C1159      C1164   1.473       .  A
C1159     Br1166   1.895       .  S
C1160      C1161   1.362       .  A
C1161      C1162   1.374       .  A
C1161     Br1168   1.847       .  S
C1162      C1163   1.413       .  A
C1162     Br1167   1.932       .  S
C1163      C1164   1.444       .  A
C1164     Br1165   1.881       .  S
C1169      C1170   1.406       .  A
C1169      C1174   1.462       .  A
C1169     Br1176   1.965       .  S
C1170      C1171   1.480       .  A
C1171      C1172   1.482       .  A
C1171     Br1178   1.930       .  S
C1172      C1173   1.444       .  A
C1172     Br1177   1.930       .  S
C1173      C1174   1.446       .  A
C1174     Br1175   1.917       .  S
C1179      C1180   1.467       .  A
C1179      C1184   1.511       .  A
C1179     Br1186   1.921       .  S
C1180      C1181   1.390       .  A
C1181      C1182   1.381       .  A
C1181     Br1188   1.690       .  S
C1182      C1183   1.447       .  A
C1182     Br1187   1.959       .  S
C1183      C1184   1.443       .  A
C1184     Br1185   1.927       .  S
C1189      C1190   1.414       .  A
C1189      C1194   1.462       .  A
C1189     Br1196   1.936       .  S
C1190      C1191   1.450       .  A
C1191      C1192   1.501       .  A
C1191     Br1198   1.922       .  S
C1192      C1193   1.457       .  A
C1192     Br1197   1.931       .  S
C1193      C1194   1.412       .  A
C1194     Br1195   1.833       .  S
C1199      C1200   1.366       .  A
C1199      C1204   1.399       .  A
C1199     Br1206   1.921       .  S
C1200      C1201   1.466       .  A
C1201      C1202   1.525       .  A
C1201     Br1208   1.875       .  S
C1202      C1203   1.499       .  A
C1202     Br1207   1.888       .  S
C1203      C1204   1.355       .  A
C1204     Br1205   1.892       .  S
C1209      C1210   1.456       .  A
C1209      C1214   1.499       .  A
C1209     Br1216   1.909       .  S
C1210      C1211   1.409       .  A
C1211      C1212   1.389       .  A
C1211     Br1218   1.681       .  S
C1212      C1213   1.401       .  A
C1212     Br1217   1.904       .  S
C1213      C1214   1.467       .  A
C1214     Br1215   1.925       .  S
C1219      C1220   1.503       .  A
C1219      C1224   1.452       .  A
C1219     Br1226   1.967       .  S
C1220      C1221   1.440       .  A
C1221      C1222   1.465       .  A
C1221     Br1228   1.936       .  S
C1222      C1223   1.467       .  A
C1222     Br1227   1.945       .  S
C1223      C1224   1.401       .  A
C1224     Br1225   1.946       .  S
C1229      C1230   1.461       .  A
C1229      C1234   1.507       .  A
C1229     Br1236   1.922       .  S
C1230      C1231   1.403       .  A
C1231      C1232   1.426       .  A
C1231     Br1238   1.732       .  S
C1232      C1233   1.425       .  A
C1232     Br1237   1.895       .  S
C1233      C1234   1.478       .  A
C1234     Br1235   1.912       .  S
C1239      C1240   1.437       .  A
C1239      C1244   1.492       .  A
C1239     Br1246   1.938       .  S
C1240      C1241   1.482       .  A
C1241      C1242   1.473       .  A
C1241     Br1248   1.898       .  S
C1242      C1243   1.422       .  A
C1242     Br1247   1.934       .  S
C1243      C1244   1.439       .  A
C1244     Br1245   1.912       .  S
