geometry optimzed in LAMMPS
_audit_creation_date              2020-12-01 
_audit_creation_method            'lammps2cif' 
_symmetry_space_group_name_H-M    'P1' 
_symmetry_Int_Tables_number       1 
_symmetry_cell_setting            triclinic 
loop_ 
_symmetry_equiv_pos_as_xyz 
  x,y,z 
_cell_length_a                    42.77771304 
_cell_length_b                    43.01862880058502 
_cell_length_c                    45.36033650917005 
_cell_angle_alpha                 89.70603474097555 
_cell_angle_beta                  89.95532472597051 
_cell_angle_gamma                 89.86169496609736 
loop_ 
_atom_site_label 
_atom_site_type_symbol 
_atom_site_fract_x 
_atom_site_fract_y 
_atom_site_fract_z 
_atom_site_charge 
O1          O  0.02566108  0.45556590  0.39249804    -0.71400
O2          O  0.46931671  0.03205292  0.40803667    -0.72400
O3          O  0.46511875  0.48137800  0.42096256    -0.61000
O4          O  0.03781234  0.01503791  0.40338772    -0.69400
O5          O  0.03819768  0.02534881  0.35541975    -0.69000
O6          O  0.45929301  0.47603946  0.37267329    -0.60200
O7          O  0.46981595  0.04208456  0.36002365    -0.72700
O8          O  0.02762699  0.46661131  0.34468692    -0.71500
Cu9        Cu  0.99784143  0.99036410  0.40062944     1.04600
Cu10       Cu  0.49764959  0.49977693  0.36314745     1.04300
C11         C  0.03527971  0.44931767  0.36643773     0.94800
C12         C  0.46110792  0.04904730  0.38614187     0.93900
C13         C  0.44988721  0.47081718  0.39889459     0.86100
C14         C  0.05057434  0.02791622  0.38095207     0.92300
O15         O  0.46241313  0.47299181  0.10487146    -0.71400
O16         O  0.04251151  0.01937339  0.09459940    -0.72400
O17         O  0.03003368  0.46192732  0.10565711    -0.61000
O18         O  0.47697856  0.03212548  0.09002987    -0.69400
O19         O  0.47954321  0.04117514  0.13808190    -0.69000
O20         O  0.03067476  0.47286477  0.15339135    -0.60200
O21         O  0.04457649  0.02887329  0.14260767    -0.72700
O22         O  0.46331090  0.48365189  0.15262730    -0.71500
Cu23       Cu  0.50130644  0.49821865  0.09723335     1.04600
Cu24       Cu  0.50354230  0.00235601  0.14607960     1.04300
C25         C  0.45057568  0.47009451  0.13061173     0.94800
C26         C  0.05543781  0.03261250  0.11650956     0.93900
C27         C  0.03883350  0.45551778  0.13203118     0.86100
C28         C  0.47077690  0.04922041  0.11224309     0.92300
O29         O  0.14040049  0.26937905  0.46481712    -0.71400
O30         O  0.15869463  0.21734449  0.03086172    -0.72400
O31         O  0.16262616  0.20736591  0.46374464    -0.61000
O32         O  0.13436421  0.27808525  0.03029159    -0.69400
O33         O  0.08618295  0.25924751  0.03354873    -0.69000
O34         O  0.11410229  0.18941584  0.46148522    -0.60200
O35         O  0.11079849  0.19777406  0.03381188    -0.72700
O36         O  0.09163229  0.25200078  0.46260601    -0.71500
Cu37       Cu  0.15140208  0.23782179  0.49573846     1.04600
Cu38       Cu  0.09946066  0.21870917  0.49325771     1.04300
C39         C  0.11287882  0.27089833  0.45407620     0.94800
C40         C  0.13926052  0.19826477  0.04230148     0.93900
C41         C  0.14240329  0.18916605  0.45239576     0.86100
C42         C  0.10727685  0.27821475  0.04204124     0.92300
C43         C  0.33090736  0.39513035  0.36296132     0.88000
C44         C  0.34036632  0.36757209  0.38258846    -0.52200
C45         C  0.35590890  0.37605072  0.40756685     0.10900
C46         C  0.36072376  0.41121802  0.41057884     0.21900
C47         C  0.31192696  0.41643764  0.38334799    -0.52900
C48         C  0.32766119  0.42487871  0.40827551     0.11000
C49         C  0.36148033  0.41268018  0.35699104    -0.52500
C50         C  0.37710117  0.42135648  0.38192968     0.11600
H51         H  0.33508787  0.34354801  0.37733478     0.16100
H52         H  0.37286323  0.41756933  0.43125475     0.01900
H53         H  0.28841306  0.42437304  0.37825252     0.16400
H54         H  0.36983117  0.41805135  0.33492846     0.16200
C55         C  0.33323912  0.39179286  0.13865628     0.88000
C56         C  0.31238906  0.41280791  0.11962816    -0.52200
C57         C  0.32550841  0.42118007  0.09344333     0.10900
C58         C  0.35849344  0.40774472  0.08865292     0.21900
C59         C  0.34083084  0.36404326  0.11861719    -0.52900
C60         C  0.35373093  0.37236680  0.09215307     0.11000
C61         C  0.36418136  0.40953531  0.14207876    -0.52500
C62         C  0.37755100  0.41819984  0.11583293     0.11600
H63         H  0.28923979  0.42038020  0.12638734     0.16100
H64         H  0.36901747  0.41456103  0.06717746     0.01900
H65         H  0.33567409  0.34007843  0.12448148     0.16400
H66         H  0.37411682  0.41474206  0.16345357     0.16200
C67         C  0.17447813  0.11336619  0.14070242     0.88000
C68         C  0.19158150  0.09131834  0.11951617    -0.52200
C69         C  0.17379640  0.08181997  0.09625535     0.10900
C70         C  0.14046794  0.09528747  0.09643671     0.21900
C71         C  0.16313396  0.14015710  0.12110271    -0.52900
C72         C  0.14548800  0.13069168  0.09767906     0.11000
C73         C  0.14470314  0.09605463  0.14992939    -0.52500
C74         C  0.12685344  0.08621970  0.12689808     0.11600
H75         H  0.21553646  0.08378344  0.12296935     0.16100
H76         H  0.12642301  0.08815366  0.07711338     0.01900
H77         H  0.16886816  0.16431582  0.12521115     0.16400
H78         H  0.13859181  0.09149375  0.17279901     0.16200
C79         C  0.17344891  0.10336534  0.35296075     0.88000
C80         C  0.16313272  0.13085541  0.37224231    -0.52200
C81         C  0.14507722  0.12241795  0.39585251     0.10900
C82         C  0.13850962  0.08729596  0.39760249     0.21900
C83         C  0.18946229  0.08091877  0.37454801    -0.52900
C84         C  0.17111438  0.07241485  0.39782281     0.11000
C85         C  0.14284958  0.08713320  0.34407102    -0.52500
C86         C  0.12446990  0.07838058  0.36743844     0.11600
H87         H  0.17007143  0.15471705  0.36794558     0.16100
H88         H  0.12431169  0.08094190  0.41715111     0.01900
H89         H  0.21315414  0.07236217  0.37154753     0.16400
H90         H  0.13660880  0.08248014  0.32131588     0.16200
O91         O  0.25444018  0.04182977  0.03151557    -0.71400
O92         O  0.28819746  0.48831364  0.47125277    -0.72400
O93         O  0.24515270  0.03968021  0.47076129    -0.61000
O94         O  0.27669878  0.48458417  0.03693300    -0.69400
O95         O  0.23631047  0.45235826  0.03455722    -0.69000
O96         O  0.20854433  0.00513325  0.45961825    -0.60200
O97         O  0.24416863  0.46105666  0.47094202    -0.72700
O98         O  0.20944378  0.01621428  0.03207260    -0.71500
Cu99       Cu  0.26165306  0.01319886  0.50354402     1.04600
Cu100      Cu  0.22468668  0.48789905  0.50196720     1.04300
C101        C  0.22689095  0.03794179  0.04178311     0.94800
C102        C  0.27171727  0.46602711  0.46121016     0.93900
C103        C  0.22196836  0.03123510  0.45509913     0.86100
C104        C  0.26278838  0.46001367  0.04548131     0.92300
O105        O  0.39513498  0.23707813  0.03355505    -0.71400
O106        O  0.38527572  0.30283315  0.46772049    -0.72400
O107        O  0.37722233  0.30089357  0.02916023    -0.61000
O108        O  0.39564678  0.23758006  0.46873360    -0.69400
O109        O  0.34515319  0.22994148  0.47725233    -0.69000
O110        O  0.32783669  0.28548906  0.02725419    -0.60200
O111        O  0.33491553  0.29465380  0.47681683    -0.72700
O112        O  0.34578879  0.22210308  0.02891468    -0.71500
Cu113      Cu  0.39822212  0.27184557  0.49868911     1.04600
Cu114      Cu  0.34433903  0.26337573  0.50831271     1.04300
C115        C  0.37204881  0.22009907  0.04187505     0.94800
C116        C  0.35646108  0.30837465  0.46234846     0.93900
C117        C  0.34899798  0.30334723  0.03786701     0.86100
C118        C  0.37010075  0.22346232  0.46300300     0.92300
O119        O  0.20207649  0.39220977  0.21712538    -0.71400
O120        O  0.26234092  0.41719789  0.28088928    -0.72400
O121        O  0.26404219  0.41648281  0.21836756    -0.61000
O122        O  0.20092450  0.39234866  0.28042223    -0.69400
O123        O  0.22075380  0.34461317  0.28083862    -0.69000
O124        O  0.28334994  0.36852650  0.21937846    -0.60200
O125        O  0.28163971  0.36925864  0.28220967    -0.72700
O126        O  0.22193066  0.34452270  0.21760463    -0.71500
Cu127      Cu  0.23164502  0.40624127  0.24913564     1.04600
Cu128      Cu  0.25257271  0.35507722  0.25001207     1.04300
C129        C  0.20275900  0.36452779  0.20699904     0.94800
C130        C  0.28103614  0.39712113  0.29193063     0.93900
C131        C  0.28342912  0.39615065  0.20898590     0.86100
C132        C  0.20148277  0.36465105  0.29084001     0.92300
C133        C  0.11773049  0.33083593  0.39052072     0.88000
C134        C  0.09692671  0.31418527  0.36819814    -0.52200
C135        C  0.08761993  0.33242180  0.34512557     0.10900
C136        C  0.10000173  0.36582023  0.34650696     0.21900
C137        C  0.14501073  0.34350028  0.37202967    -0.52900
C138        C  0.13566685  0.36160734  0.34867539     0.11000
C139        C  0.09905801  0.35959830  0.39989690    -0.52500
C140        C  0.08935517  0.37794513  0.37699346     0.11600
H141        H  0.08990013  0.29009059  0.37085024     0.16100
H142        H  0.09291899  0.38003414  0.32720858     0.01900
H143        H  0.16931677  0.33773861  0.37635813     0.16400
H144        H  0.09325517  0.36450651  0.42272187     0.16200
C145        C  0.11517736  0.33342121  0.10826284     0.88000
C146        C  0.14321600  0.34429792  0.12674273    -0.52200
C147        C  0.13491021  0.36207291  0.15054500     0.10900
C148        C  0.09933408  0.36772825  0.15304596     0.21900
C149        C  0.09391575  0.31689638  0.13040172    -0.52900
C150        C  0.08570402  0.33464223  0.15400200     0.11000
C151        C  0.09776215  0.36313363  0.09958626    -0.52500
C152        C  0.08907911  0.38123446  0.12275296     0.11600
H153        H  0.16720797  0.33780527  0.12190846     0.16100
H154        H  0.09277649  0.38178474  0.17251109     0.01900
H155        H  0.08604059  0.29313831  0.12743707     0.16400
H156        H  0.09212515  0.36898351  0.07686682     0.16200
C157        C  0.40413277  0.17270963  0.10893542     0.88000
C158        C  0.37427294  0.16116720  0.12516268    -0.52200
C159        C  0.38070997  0.14441909  0.15029111     0.10900
C160        C  0.41558269  0.14109906  0.15690430     0.21900
C161        C  0.42184191  0.19100065  0.13241107    -0.52900
C162        C  0.42772225  0.17452273  0.15752644     0.11000
C163        C  0.42379412  0.14323260  0.10392368    -0.52500
C164        C  0.42958671  0.12662455  0.12912256     0.11600
H165        H  0.35049228  0.16567554  0.11811259     0.16100
H166        H  0.42057250  0.12780955  0.17746556     0.01900
H167        H  0.42963291  0.21478267  0.12907257     0.16400
H168        H  0.43253470  0.13656759  0.08239819     0.16200
C169        C  0.39613840  0.17310351  0.39609818     0.88000
C170        C  0.41828934  0.18968070  0.37455473    -0.52200
C171        C  0.42223487  0.17472382  0.34836385     0.10900
C172        C  0.40359116  0.14445799  0.34603264     0.21900
C173        C  0.36558954  0.16927947  0.37842794    -0.52900
C174        C  0.36940543  0.15436008  0.35213593     0.11000
C175        C  0.40969227  0.14011413  0.39924910    -0.52500
C176        C  0.41391537  0.12504554  0.37296540     0.11600
H177        H  0.43027519  0.21116144  0.37989213     0.16100
H178        H  0.40737545  0.13265267  0.32463118     0.01900
H179        H  0.34311016  0.17856858  0.38504314     0.16400
H180        H  0.41649848  0.13051006  0.42043712     0.16200
O181        O  0.48730303  0.21341093  0.22259409    -0.71400
O182        O  0.05228976  0.25121840  0.28092682    -0.72400
O183        O  0.48839779  0.21232138  0.28464979    -0.61000
O184        O  0.05209295  0.25167102  0.21860159    -0.69400
O185        O  0.02345276  0.29481901  0.21887717    -0.69000
O186        O  0.46133780  0.25643044  0.28564728    -0.60200
O187        O  0.02386396  0.29452641  0.28079954    -0.72700
O188        O  0.45943163  0.25704858  0.22290972    -0.71500
Cu189      Cu  0.02593709  0.23140278  0.25008164     1.04600
Cu190      Cu  0.48724554  0.27587219  0.25363360     1.04300
C191        C  0.46450785  0.22975076  0.21303558     0.94800
C192        C  0.04692230  0.27855082  0.29046731     0.93900
C193        C  0.46620013  0.22886042  0.29515871     0.86100
C194        C  0.04652885  0.27913614  0.20905473     0.92300
O195        O  0.25105467  0.08125459  0.27651030    -0.71400
O196        O  0.31168314  0.10817727  0.21246917    -0.72400
O197        O  0.31492855  0.10083110  0.27469418    -0.61000
O198        O  0.24897926  0.08695632  0.21466277    -0.69400
O199        O  0.23289047  0.13592780  0.21820823    -0.69000
O200        O  0.29911514  0.14949417  0.28117110    -0.60200
O201        O  0.29555965  0.15684552  0.21822450    -0.72700
O202        O  0.23518266  0.13015922  0.28078720    -0.71500
Cu203      Cu  0.28224579  0.09264613  0.24447395     1.04600
Cu204      Cu  0.26516793  0.14485864  0.24983789     1.04300
C205        C  0.23319045  0.10161280  0.28835134     0.94800
C206        C  0.31269806  0.13696231  0.20509031     0.93900
C207        C  0.31764029  0.12694361  0.28753506     0.86100
C208        C  0.23076599  0.10887260  0.20671885     0.92300
C209        C  0.44602422  0.21672205  0.31884406    -0.14900
C210        C  0.44282953  0.18621007  0.32443502    -0.30100
H211        H  0.43244368  0.23346240  0.33136639     0.14100
H212        H  0.45421149  0.16925513  0.31034167     0.14700
C213        C  0.34328931  0.15174590  0.33057481    -0.14900
C214        C  0.34312298  0.13020983  0.30929939    -0.30100
H215        H  0.32344732  0.16738189  0.33275387     0.14100
H216        H  0.36166751  0.11298803  0.30852390     0.14700
C217        C  0.44514427  0.18703016  0.18276825    -0.14900
C218        C  0.44441906  0.21730272  0.18977790    -0.30100
H219        H  0.45863996  0.17072667  0.19601224     0.14100
H220        H  0.42916402  0.23330697  0.17799667     0.14700
C221        C  0.35711965  0.13099835  0.17057279    -0.14900
C222        C  0.33351790  0.14810856  0.18124869    -0.30100
H223        H  0.36183111  0.10817522  0.17992772     0.14100
H224        H  0.33063067  0.17193444  0.17361862     0.14700
C225        C  0.06634911  0.32261727  0.17856648    -0.14900
C226        C  0.06681894  0.29230499  0.18609768    -0.30100
H227        H  0.05214330  0.33898541  0.19090689     0.14100
H228        H  0.08290924  0.27645701  0.17530202     0.14700
C229        C  0.06758512  0.29102118  0.31321553    -0.14900
C230        C  0.06756145  0.32108707  0.32098023    -0.30100
H231        H  0.08375908  0.27479572  0.32351983     0.14100
H232        H  0.05318716  0.33781123  0.30911043     0.14700
C233        C  0.15717624  0.37268838  0.17364352    -0.14900
C234        C  0.18166684  0.35523591  0.18262492    -0.30100
H235        H  0.15162527  0.39402310  0.18520469     0.14100
H236        H  0.18577967  0.33276899  0.17252636     0.14700
C237        C  0.18050686  0.35515861  0.31510188    -0.14900
C238        C  0.15708043  0.37302751  0.32527010    -0.30100
H239        H  0.18414810  0.33220592  0.32453131     0.14100
H240        H  0.15175257  0.39501048  0.31458097     0.14700
C241        C  0.37425280  0.19846366  0.06719897    -0.14900
C242        C  0.40116303  0.19213234  0.08102417    -0.30100
H243        H  0.35265022  0.18797017  0.07465702     0.14100
H244        H  0.42265889  0.20191629  0.07220452     0.14700
C245        C  0.36879185  0.20072443  0.43863731    -0.14900
C246        C  0.39491633  0.19055497  0.42513883    -0.30100
H247        H  0.34590903  0.19382152  0.43098895     0.14100
H248        H  0.41741423  0.19644556  0.43468708     0.14700
C249        C  0.19441265  0.11285944  0.32749482    -0.14900
C250        C  0.21014634  0.09199353  0.31100172    -0.30100
H251        H  0.19832155  0.13751757  0.32378761     0.14100
H252        H  0.20705550  0.06731052  0.31519721     0.14700
C253        C  0.18166457  0.05114086  0.42138688    -0.14900
C254        C  0.21109071  0.05196534  0.43148931    -0.30100
H255        H  0.16456019  0.03586959  0.43160653     0.14100
H256        H  0.22730169  0.06933052  0.42314445     0.14700
C257        C  0.19450486  0.12332055  0.16636071    -0.14900
C258        C  0.20757342  0.10177845  0.18391624    -0.30100
H259        H  0.19958231  0.14779642  0.16960345     0.14100
H260        H  0.20306177  0.07735353  0.17961444     0.14700
C261        C  0.18519021  0.06073855  0.07276020    -0.14900
C262        C  0.21557139  0.05878518  0.06521004    -0.30100
H263        H  0.16788851  0.04754654  0.06060098     0.14100
H264        H  0.23266003  0.07363858  0.07578339     0.14700
C265        C  0.31767502  0.38288240  0.16732189    -0.14900
C266        C  0.30511754  0.40454901  0.18508459    -0.30100
H267        H  0.31390504  0.35836412  0.17203031     0.14100
H268        H  0.30781726  0.42905132  0.17964637     0.14700
C269        C  0.30929626  0.44078149  0.07141435    -0.14900
C270        C  0.27801097  0.44018717  0.06775657    -0.30100
H271        H  0.32370889  0.45498784  0.05696679     0.14100
H272        H  0.26369183  0.42396545  0.08021234     0.14700
C273        C  0.36066384  0.34989105  0.06816267    -0.14900
C274        C  0.34113590  0.32641052  0.06101584    -0.30100
H275        H  0.38163075  0.35379659  0.05518849     0.14100
H276        H  0.31896325  0.32404490  0.07245419     0.14700
C277        C  0.31356336  0.38547501  0.33547397    -0.14900
C278        C  0.30126393  0.40641947  0.31668128    -0.30100
H279        H  0.30978872  0.36086048  0.33166263     0.14100
H280        H  0.30400061  0.43105950  0.32108396     0.14700
C281        C  0.31475667  0.44544284  0.43121064    -0.14900
C282        C  0.28422905  0.44586214  0.43796039    -0.30100
H283        H  0.33114109  0.45922400  0.44390396     0.14100
H284        H  0.26814406  0.43035011  0.42683290     0.14700
C285        C  0.36609610  0.35371393  0.43041193    -0.14900
C286        C  0.34748709  0.33032288  0.43896393    -0.30100
H287        H  0.38799080  0.35794684  0.44178912     0.14100
H288        H  0.32427854  0.32808925  0.42949273     0.14700
C289        C  0.15214585  0.16812960  0.42833999    -0.14900
C290        C  0.13439299  0.14428080  0.41907275    -0.30100
H291        H  0.17509227  0.17178295  0.41866494     0.14100
H292        H  0.11255817  0.13911652  0.43027521     0.14700
C293        C  0.15010786  0.17708388  0.06577939    -0.14900
C294        C  0.13369298  0.15204623  0.07449594    -0.30100
H295        H  0.17280641  0.18172003  0.07548855     0.14100
H296        H  0.11223961  0.14589524  0.06317683     0.14700
C297        C  0.10033946  0.30001973  0.06601408    -0.14900
C298        C  0.12309826  0.31324940  0.08219789    -0.30100
H299        H  0.07597831  0.30387228  0.07179706     0.14100
H300        H  0.14750374  0.30852543  0.07728081     0.14700
C301        C  0.10515048  0.29442175  0.43151633    -0.14900
C302        C  0.12704603  0.30981208  0.41586226    -0.30100
H303        H  0.08062495  0.29788116  0.42627690     0.14100
H304        H  0.15167710  0.30580393  0.42022786     0.14700
C305        C  0.05847388  0.42794250  0.13859915    -0.14900
C306        C  0.07021129  0.40983300  0.11729400    -0.30100
H307        H  0.06315220  0.42269748  0.16156192     0.14100
H308        H  0.06521659  0.41582441  0.09446982     0.14700
C309        C  0.09789174  0.06792727  0.13215418    -0.14900
C310        C  0.08329130  0.05197767  0.11088198    -0.30100
H311        H  0.08903135  0.06662257  0.15458816     0.14100
H312        H  0.09217187  0.05231090  0.08851685     0.14700
C313        C  0.44762848  0.09735018  0.13104838    -0.14900
C314        C  0.45353563  0.07863758  0.10806005    -0.30100
H315        H  0.45519730  0.09038173  0.15296455     0.14100
H316        H  0.44545701  0.08465003  0.08609530     0.14700
C317        C  0.40695503  0.43679469  0.11269335    -0.14900
C318        C  0.42196261  0.45099363  0.13516639    -0.30100
H319        H  0.41601768  0.43958922  0.09048376     0.14100
H320        H  0.41302176  0.44914813  0.15746084     0.14700
C321        C  0.09460756  0.06101221  0.36319753    -0.14900
C322        C  0.07985953  0.04572037  0.38519102    -0.30100
H323        H  0.08503358  0.06003895  0.34104930     0.14100
H324        H  0.08954965  0.04558291  0.40723202     0.14700
C325        C  0.06894120  0.40543073  0.38236277    -0.14900
C326        C  0.05562191  0.42221739  0.36068772    -0.30100
H327        H  0.06426961  0.41167660  0.40511710     0.14100
H328        H  0.05994784  0.41664638  0.33782334     0.14700
C329        C  0.42115055  0.45237086  0.40331586    -0.14900
C330        C  0.40658749  0.43927291  0.38011866    -0.30100
H331        H  0.41207172  0.45001662  0.42550422     0.14100
H332        H  0.41634574  0.44236767  0.35818234     0.14700
C333        C  0.44192943  0.07723550  0.39142874    -0.14900
C334        C  0.43031720  0.09465366  0.36915622    -0.30100
H335        H  0.43803835  0.08388559  0.41415175     0.14100
H336        H  0.43412276  0.08706852  0.34662730     0.14700
O337        O  0.01942027  0.45485506  0.87887479    -0.71400
O338        O  0.47562099  0.03632550  0.89846268    -0.72400
O339        O  0.45844209  0.46602745  0.88194912    -0.61000
O340        O  0.03426024  0.02325127  0.88877960    -0.69400
O341        O  0.02817784  0.03062703  0.84062430    -0.69000
O342        O  0.45550401  0.47352079  0.83356977    -0.60200
O343        O  0.47234485  0.04456622  0.85024886    -0.72700
O344        O  0.01365325  0.45992907  0.83047470    -0.71500
Cu345      Cu  0.99442820  0.99785188  0.89136789     1.04600
Cu346      Cu  0.49515166  0.49738046  0.83282084     1.04300
C347        C  0.02398940  0.44482583  0.85282765     0.94800
C348        C  0.46551640  0.05234226  0.87676306     0.93900
C349        C  0.44429468  0.46228631  0.85730456     0.86100
C350        C  0.04363547  0.03474423  0.86417852     0.92300
O351        O  0.46275613  0.46849373  0.60708381    -0.71400
O352        O  0.02723294  0.02314568  0.59652748    -0.72400
O353        O  0.02791577  0.45230685  0.61131037    -0.61000
O354        O  0.46795989  0.03580587  0.58880284    -0.69400
O355        O  0.47138953  0.04621021  0.63651331    -0.69000
O356        O  0.03099094  0.46220625  0.65912528    -0.60200
O357        O  0.03759560  0.02551220  0.64438557    -0.72700
O358        O  0.46609373  0.47939991  0.65472345    -0.71500
Cu359      Cu  0.50125663  0.49332432  0.59747254     1.04600
Cu360      Cu  0.49744403  0.00846171  0.64481184     1.04300
C361        C  0.45209867  0.46610328  0.63331594     0.94800
C362        C  0.04474359  0.03187098  0.61748664     0.93900
C363        C  0.03819294  0.44527921  0.63699762     0.86100
C364        C  0.46095737  0.05290066  0.61086560     0.92300
O365        O  0.12987035  0.27638113  0.96754210    -0.71400
O366        O  0.15934169  0.20533677  0.52675324    -0.72400
O367        O  0.15512689  0.21618997  0.96829359    -0.61000
O368        O  0.13649239  0.26709477  0.52725072    -0.69400
O369        O  0.08791940  0.24927135  0.52491590    -0.69000
O370        O  0.10735248  0.19628139  0.97129161    -0.60200
O371        O  0.11102971  0.18680229  0.52457901    -0.72700
O372        O  0.08192294  0.25702990  0.97083590    -0.71500
Cu373      Cu  0.14613452  0.24770323  0.99916855     1.04600
Cu374      Cu  0.09482349  0.22693308  0.00253336     1.04300
C375        C  0.10149573  0.27541765  0.95869261     0.94800
C376        C  0.13847959  0.18634695  0.53578326     0.93900
C377        C  0.13464452  0.19676414  0.95975115     0.86100
C378        C  0.10807529  0.26762152  0.53605605     0.92300
C379        C  0.32095589  0.39482344  0.86150611     0.88000
C380        C  0.33059329  0.36508844  0.87841368    -0.52200
C381        C  0.34913633  0.37082297  0.90259130     0.10900
C382        C  0.35563699  0.40541661  0.90770773     0.21900
C383        C  0.30545474  0.41530792  0.88494178    -0.52900
C384        C  0.32337759  0.42072438  0.90918249     0.11000
C385        C  0.35188064  0.41146698  0.85437469    -0.52500
C386        C  0.37002300  0.41707683  0.87880847     0.11600
H387        H  0.32355885  0.34194227  0.87177374     0.16100
H388        H  0.37016676  0.40998023  0.92752246     0.01900
H389        H  0.28219949  0.42512767  0.88232065     0.16400
H390        H  0.35813996  0.41845765  0.83215050     0.16200
C391        C  0.32909650  0.39984813  0.64641138     0.88000
C392        C  0.31129510  0.41925334  0.62343785    -0.52200
C393        C  0.32627934  0.42173381  0.59691861     0.10900
C394        C  0.35782304  0.40439694  0.59589297     0.21900
C395        C  0.33500639  0.36842899  0.63142767    -0.52900
C396        C  0.34964149  0.37057830  0.60475844     0.11000
C397        C  0.36135230  0.41510858  0.64852203    -0.52500
C398        C  0.37658493  0.41774422  0.62203817     0.11600
H399        H  0.28917929  0.43065871  0.62813659     0.16100
H400        H  0.36978015  0.40663286  0.57425474     0.01900
H401        H  0.32687395  0.34645386  0.64046909     0.16400
H402        H  0.37063978  0.42343012  0.66924668     0.16200
C403        C  0.16664819  0.10701505  0.63963508     0.88000
C404        C  0.18700975  0.08593635  0.62061646    -0.52200
C405        C  0.17224534  0.07402170  0.59668992     0.10900
C406        C  0.13762962  0.08445244  0.59399771     0.21900
C407        C  0.15475338  0.13210350  0.61831468    -0.52900
C408        C  0.13981933  0.12040300  0.59400380     0.11000
C409        C  0.13804814  0.08788152  0.64766070    -0.52500
C410        C  0.12257439  0.07592375  0.62424620     0.11600
H411        H  0.21159556  0.08170983  0.62519367     0.16100
H412        H  0.12556972  0.07502803  0.57436062     0.01900
H413        H  0.15853397  0.15676547  0.62177646     0.16400
H414        H  0.13058396  0.08413457  0.67031483     0.16200
C415        C  0.16200130  0.10909017  0.86244361     0.88000
C416        C  0.15097704  0.13679285  0.88096921    -0.52200
C417        C  0.13627454  0.12826783  0.90653882     0.10900
C418        C  0.13361795  0.09308370  0.91095262     0.21900
C419        C  0.18235097  0.08975204  0.88354677    -0.52900
C420        C  0.16732607  0.08127385  0.90889439     0.11000
C421        C  0.13253780  0.08949264  0.85747459    -0.52500
C422        C  0.11761458  0.08106918  0.88310910     0.11600
H423        H  0.15493440  0.16086039  0.87471263     0.16100
H424        H  0.12167091  0.08633034  0.93179260     0.01900
H425        H  0.20617132  0.08286065  0.87843889     0.16400
H426        H  0.12491759  0.08284579  0.83561906     0.16200
O427        O  0.22991213  0.03172081  0.53112984    -0.71400
O428        O  0.28237928  0.48305028  0.97520403    -0.72400
O429        O  0.25274204  0.04309740  0.96876318    -0.61000
O430        O  0.28804054  0.48726970  0.53347664    -0.69400
O431        O  0.24352797  0.46083957  0.53381136    -0.69000
O432        O  0.20795504  0.01709601  0.97000874    -0.60200
O433        O  0.24031644  0.45303024  0.97235240    -0.72700
O434        O  0.19312930  0.99755775  0.51979315    -0.71500
Cu435      Cu  0.27195639  0.01497711  0.99922886     1.04600
Cu436      Cu  0.21640650  0.47749095  0.00148313     1.04300
C437        C  0.20207959  0.02129784  0.53425580     0.94800
C438        C  0.26808785  0.45956399  0.96445345     0.93900
C439        C  0.22477071  0.03913886  0.95978402     0.86100
C440        C  0.27126541  0.46503873  0.54345207     0.92300
O441        O  0.40739068  0.24006358  0.53030214    -0.71400
O442        O  0.38085011  0.29911115  0.96619057    -0.72400
O443        O  0.39738428  0.30611415  0.52887918    -0.61000
O444        O  0.40208533  0.23620922  0.97072137    -0.69400
O445        O  0.35301233  0.22042500  0.96614222    -0.69000
O446        O  0.34722612  0.29789199  0.53855490    -0.60200
O447        O  0.33179578  0.28259606  0.96417337    -0.72700
O448        O  0.35694145  0.23212228  0.53889958    -0.71500
Cu449      Cu  0.39059517  0.26881931  0.00002336     1.04600
Cu450      Cu  0.33792866  0.25212262  0.99651548     1.04300
C451        C  0.38560010  0.22595727  0.54422352     0.94800
C452        C  0.35347812  0.30010389  0.95459131     0.93900
C453        C  0.37247329  0.31316603  0.54289823     0.86100
C454        C  0.38191926  0.21866830  0.95864479     0.92300
O455        O  0.19158880  0.39457670  0.72513265    -0.71400
O456        O  0.26267788  0.39479782  0.78301582    -0.72400
O457        O  0.25767696  0.40155775  0.71985462    -0.61000
O458        O  0.19678882  0.38673813  0.78687161    -0.69400
O459        O  0.20574925  0.33608415  0.78245910    -0.69000
O460        O  0.26168592  0.35047285  0.71384903    -0.60200
O461        O  0.27118641  0.34444393  0.77642069    -0.72700
O462        O  0.19697429  0.34349124  0.72058927    -0.71500
Cu463      Cu  0.22716665  0.39625499  0.75393353     1.04600
Cu464      Cu  0.23418950  0.34187980  0.74819136     1.04300
C465        C  0.18298405  0.36892810  0.71379089     0.94800
C466        C  0.27774675  0.36994826  0.78943360     0.93900
C467        C  0.26791391  0.37806348  0.70550997     0.86100
C468        C  0.19190148  0.35866477  0.79504543     0.92300
C469        C  0.10183200  0.32693865  0.88858699     0.88000
C470        C  0.08420994  0.30741771  0.86565406    -0.52200
C471        C  0.07588745  0.32391065  0.84095155     0.10900
C472        C  0.08623293  0.35805514  0.84141412     0.21900
C473        C  0.12970342  0.34051747  0.87175500    -0.52900
C474        C  0.12160717  0.35654870  0.84685421     0.11000
C475        C  0.08049236  0.35485636  0.89471526    -0.52500
C476        C  0.07214071  0.37122087  0.87002432     0.11600
H477        H  0.07820783  0.28316904  0.86913836     0.16100
H478        H  0.08018987  0.37078154  0.82090682     0.01900
H479        H  0.15380516  0.33710011  0.87856260     0.16400
H480        H  0.07277576  0.36116855  0.91671564     0.16200
C481        C  0.11041939  0.32219903  0.60361268     0.88000
C482        C  0.13892347  0.33044177  0.62220456    -0.52200
C483        C  0.13225842  0.34637537  0.64726911     0.10900
C484        C  0.09704034  0.35391495  0.65091108     0.21900
C485        C  0.08860207  0.30506653  0.62506202    -0.52900
C486        C  0.08148332  0.32166320  0.64982159     0.11000
C487        C  0.09415665  0.35327271  0.59715898    -0.52500
C488        C  0.08674195  0.37012359  0.62176034     0.11600
H489        H  0.16231657  0.32207918  0.61720918     0.16100
H490        H  0.09148404  0.36678613  0.67135911     0.01900
H491        H  0.07943670  0.28201199  0.62077718     0.16400
H492        H  0.08829872  0.36089484  0.57497235     0.16200
C493        C  0.38170395  0.17015937  0.61091840     0.88000
C494        C  0.35405655  0.15951799  0.63015012    -0.52200
C495        C  0.36294384  0.14377645  0.65509048     0.10900
C496        C  0.39849938  0.13991095  0.65810072     0.21900
C497        C  0.40228086  0.18905291  0.63184209    -0.52900
C498        C  0.41115436  0.17320793  0.65652409     0.11000
C499        C  0.40048688  0.14034248  0.60442720    -0.52500
C500        C  0.40945195  0.12449389  0.62933198     0.11600
H501        H  0.32981886  0.16444373  0.62476515     0.16100
H502        H  0.40567908  0.12723817  0.67842037     0.01900
H503        H  0.40959976  0.21269887  0.62708963     0.16400
H504        H  0.40653758  0.13316230  0.58225376     0.16200
C505        C  0.38440092  0.16820929  0.88790321     0.88000
C506        C  0.40386073  0.18942780  0.86736452    -0.52200
C507        C  0.41245937  0.17537614  0.84156859     0.10900
C508        C  0.40045719  0.14210257  0.83847789     0.21900
C509        C  0.35668987  0.15797436  0.86893867    -0.52900
C510        C  0.36514552  0.14450582  0.84302236     0.11000
C511        C  0.40451075  0.13848822  0.89188724    -0.52500
C512        C  0.41295912  0.12491165  0.86561527     0.11600
H513        H  0.41091156  0.21284772  0.87315808     0.16100
H514        H  0.40702848  0.13114674  0.81719734     0.01900
H515        H  0.33245723  0.16117993  0.87543015     0.16400
H516        H  0.41138392  0.12955056  0.91332828     0.16200
O517        O  0.47734898  0.21189254  0.71659683    -0.71400
O518        O  0.03906384  0.24223521  0.77604160    -0.72400
O519        O  0.47742014  0.21257732  0.77860536    -0.61000
O520        O  0.03912177  0.24080257  0.71312045    -0.69400
O521        O  0.01446990  0.28627315  0.71239429    -0.69000
O522        O  0.45273261  0.25801790  0.77882298    -0.60200
O523        O  0.01428231  0.28761214  0.77462533    -0.72700
O524        O  0.45211794  0.25706908  0.71591707    -0.71500
Cu525      Cu  0.01080479  0.22425636  0.74512449     1.04600
Cu526      Cu  0.48066016  0.27491106  0.74679202     1.04300
C527        C  0.45539295  0.22918465  0.70680571     0.94800
C528        C  0.03565414  0.27001582  0.78528622     0.93900
C529        C  0.45610081  0.23042266  0.78883905     0.86100
C530        C  0.03610533  0.26842336  0.70295182     0.92300
O531        O  0.23370484  0.08656493  0.78316898    -0.71400
O532        O  0.29516885  0.11181571  0.72023943    -0.72400
O533        O  0.29487126  0.11192095  0.78277709    -0.61000
O534        O  0.23427442  0.08657803  0.72079687    -0.69400
O535        O  0.21438613  0.13437414  0.72000176    -0.69000
O536        O  0.27420232  0.15935871  0.78288737    -0.60200
O537        O  0.27477634  0.15932901  0.72000458    -0.72700
O538        O  0.21349330  0.13415634  0.78276902    -0.71500
Cu539      Cu  0.26518139  0.09751269  0.75180725     1.04600
Cu540      Cu  0.24348841  0.14844941  0.75145078     1.04300
C541        C  0.21418208  0.10646040  0.79308453     0.94800
C542        C  0.29429082  0.13952833  0.70991744     0.93900
C543        C  0.29401601  0.13965215  0.79266312     0.86100
C544        C  0.21542716  0.10668111  0.71011120     0.92300
C545        C  0.43521363  0.21915295  0.81251226    -0.14900
C546        C  0.43335767  0.18872898  0.81885983    -0.30100
H547        H  0.42056346  0.23575895  0.82407369     0.14100
H548        H  0.44656260  0.17224776  0.80569287     0.14700
C549        C  0.34266057  0.13391330  0.82067861    -0.14900
C550        C  0.31587783  0.14929568  0.81568349    -0.30100
H551        H  0.34931821  0.11452687  0.80677339     0.14100
H552        H  0.31054323  0.17035320  0.82779393     0.14700
C553        C  0.43178309  0.18620778  0.67939805    -0.14900
C554        C  0.43370565  0.21687780  0.68468943    -0.30100
H555        H  0.44520317  0.16985498  0.69266807     0.14100
H556        H  0.41867979  0.23323199  0.67309705     0.14700
C557        C  0.34108173  0.13289125  0.67834773    -0.14900
C558        C  0.31537979  0.14911825  0.68575669    -0.30100
H559        H  0.34770203  0.11254995  0.69117474     0.14100
H560        H  0.31018751  0.17084405  0.67448816     0.14700
C561        C  0.06070579  0.31006117  0.67355493    -0.14900
C562        C  0.05765633  0.27960587  0.67989554    -0.30100
H563        H  0.04838847  0.32721845  0.68670103     0.14100
H564        H  0.07176035  0.26248521  0.66840961     0.14700
C565        C  0.05620396  0.28141599  0.80898338    -0.14900
C566        C  0.05694136  0.31158948  0.81636035    -0.30100
H567        H  0.07093863  0.26470343  0.82047958     0.14100
H568        H  0.04360932  0.32836016  0.80349219     0.14700
C569        C  0.15634287  0.34780412  0.67072050    -0.14900
C570        C  0.15703899  0.36898772  0.69221290    -0.30100
H571        H  0.17529908  0.33098723  0.66946475     0.14100
H572        H  0.13992708  0.38763518  0.69266426     0.14700
C573        C  0.17035804  0.35126953  0.81920425    -0.14900
C574        C  0.14476391  0.36816019  0.82522924    -0.30100
H575        H  0.17398449  0.32916224  0.83039058     0.14100
H576        H  0.13905148  0.38846250  0.81194037     0.14700
C577        C  0.39393762  0.20286258  0.56701517    -0.14900
C578        C  0.37232595  0.18887016  0.58408162    -0.30100
H579        H  0.41858767  0.19877692  0.57131192     0.14100
H580        H  0.34764026  0.19308592  0.58010543     0.14700
C581        C  0.39290019  0.19756514  0.93499480    -0.14900
C582        C  0.37330298  0.18390289  0.91601449    -0.30100
H583        H  0.41789002  0.19596541  0.93105227     0.14100
H584        H  0.34831161  0.18625056  0.91965783     0.14700
C585        C  0.17893618  0.11843585  0.83455006    -0.14900
C586        C  0.19310972  0.09729228  0.81732857    -0.30100
H587        H  0.18142538  0.14302633  0.82954514     0.14100
H588        H  0.19149886  0.07277434  0.82296225     0.14700
C589        C  0.18110504  0.06151645  0.93211263    -0.14900
C590        C  0.21196198  0.06001153  0.93713134    -0.30100
H591        H  0.16507207  0.04848511  0.94603477     0.14100
H592        H  0.22805386  0.07465089  0.92483563     0.14700
C593        C  0.18363135  0.11841807  0.66638622    -0.14900
C594        C  0.19558798  0.09763106  0.68551640    -0.30100
H595        H  0.18705240  0.14322420  0.66953881     0.14100
H596        H  0.19283620  0.07287026  0.68140994     0.14700
C597        C  0.19118831  0.05723382  0.57452088    -0.14900
C598        C  0.18019157  0.03688449  0.55482881    -0.30100
H599        H  0.21626124  0.06117996  0.57542950     0.14100
H600        H  0.15554260  0.03099327  0.55443547     0.14700
C601        C  0.31203567  0.39760423  0.67560359    -0.14900
C602        C  0.28501478  0.38208350  0.67771282    -0.30100
H603        H  0.32201365  0.40822239  0.69512087     0.14100
H604        H  0.27604581  0.36991332  0.65858585     0.14700
C605        C  0.31425524  0.44077693  0.57199121    -0.14900
C606        C  0.28346449  0.44434253  0.56683028    -0.30100
H607        H  0.33117652  0.45165443  0.55738325     0.14100
H608        H  0.26661470  0.43138591  0.57990215     0.14700
C609        C  0.35167457  0.34303689  0.58506874    -0.14900
C610        C  0.37293266  0.33990601  0.56347192    -0.30100
H611        H  0.33492667  0.32445731  0.58871477     0.14100
H612        H  0.39124134  0.35713642  0.56089370     0.14700
C613        C  0.29888536  0.39104497  0.83539495    -0.14900
C614        C  0.30202432  0.37082169  0.81298373    -0.30100
H615        H  0.27824079  0.40585592  0.83521972     0.14100
H616        H  0.32100262  0.35402915  0.81298688     0.14700
C617        C  0.31244895  0.43981456  0.93429668    -0.14900
C618        C  0.28213751  0.43974356  0.94180191    -0.30100
H619        H  0.32922099  0.45342084  0.94667520     0.14100
H620        H  0.26625729  0.42397329  0.93071230     0.14700
C621        C  0.36146064  0.34701222  0.92345015    -0.14900
C622        C  0.34542051  0.32121885  0.92995257    -0.30100
H623        H  0.38203845  0.35275366  0.93632197     0.14100
H624        H  0.32345299  0.31689443  0.91871386     0.14700
C625        C  0.14306892  0.17532939  0.93596011    -0.14900
C626        C  0.12589365  0.15034323  0.92932578    -0.30100
H627        H  0.16482086  0.17964996  0.92425530     0.14100
H628        H  0.10554848  0.14441944  0.94252799     0.14700
C629        C  0.14682238  0.16488151  0.56012166    -0.14900
C630        C  0.12957950  0.14030540  0.56879443    -0.30100
H631        H  0.16880263  0.16949756  0.57128064     0.14100
H632        H  0.10887583  0.13375821  0.55647028     0.14700
C633        C  0.09829158  0.28910357  0.55966560    -0.14900
C634        C  0.11936965  0.30342680  0.57677701    -0.30100
H635        H  0.07353091  0.29154542  0.56442550     0.14100
H636        H  0.14408162  0.29982291  0.57240211     0.14700
C637        C  0.09114822  0.29479420  0.93358304    -0.14900
C638        C  0.11172698  0.30919694  0.91585024    -0.30100
H639        H  0.06638526  0.29570863  0.92839268     0.14100
H640        H  0.13652902  0.30757002  0.92077343     0.14700
C641        C  0.05824889  0.41723430  0.64152236    -0.14900
C642        C  0.06832301  0.39965869  0.61884173    -0.30100
H643        H  0.06435916  0.41098852  0.66395193     0.14100
H644        H  0.06203063  0.40678722  0.59660943     0.14700
C645        C  0.09434746  0.05696380  0.63010848    -0.14900
C646        C  0.07330035  0.04936605  0.60973804    -0.30100
H647        H  0.09005820  0.05005949  0.65284073     0.14100
H648        H  0.07676583  0.05618513  0.58691654     0.14700
C649        C  0.42942518  0.09613774  0.63041641    -0.14900
C650        C  0.44045942  0.08049931  0.60688934    -0.30100
H651        H  0.43557208  0.08793069  0.65234840     0.14100
H652        H  0.43423788  0.08757039  0.58466040     0.14700
C653        C  0.40715682  0.43375585  0.61760131    -0.14900
C654        C  0.42312816  0.44832837  0.63915539    -0.30100
H655        H  0.41621804  0.43442640  0.59523507     0.14100
H656        H  0.41463323  0.44814005  0.66166775     0.14700
C657        C  0.08907348  0.06172480  0.88534425    -0.14900
C658        C  0.07239055  0.05312687  0.86186611    -0.30100
H659        H  0.08128592  0.05491566  0.90724540     0.14100
H660        H  0.07926670  0.06038224  0.83988677     0.14700
C661        C  0.05205585  0.39922525  0.87208717    -0.14900
C662        C  0.04181677  0.41578433  0.84870217    -0.30100
H663        H  0.04593321  0.40681694  0.89416315     0.14100
H664        H  0.04683134  0.40862085  0.82636599     0.14700
C665        C  0.41456822  0.44520525  0.85547302    -0.14900
C666        C  0.40045234  0.43349148  0.87937840    -0.30100
H667        H  0.40406143  0.44280615  0.83385044     0.14100
H668        H  0.41145401  0.43633781  0.90077925     0.14700
C669        C  0.44573388  0.07987552  0.88300001    -0.14900
C670        C  0.43292885  0.09690543  0.86131294    -0.30100
H671        H  0.44155432  0.08589219  0.90587293     0.14100
H672        H  0.43737941  0.09015097  0.83863649     0.14700
O673        O  0.02310205  0.95192078  0.39156825    -0.71400
O674        O  0.47981906  0.54493387  0.41196670    -0.72400
O675        O  0.45703174  0.96804859  0.39640042    -0.61000
O676        O  0.03866203  0.51865539  0.40578335    -0.69400
O677        O  0.04103153  0.52949514  0.35795236    -0.69000
O678        O  0.45771687  0.97826909  0.34842143    -0.60200
O679        O  0.47261790  0.54016825  0.36374499    -0.72700
O680        O  0.02320508  0.96226817  0.34357866    -0.71500
Cu681      Cu  0.99932897  0.49376418  0.40090670     1.04600
Cu682      Cu  0.49661493  0.00461153  0.35166646     1.04300
C683        C  0.03146029  0.94515122  0.36527353     0.94800
C684        C  0.46841177  0.55506221  0.38786129     0.93900
C685        C  0.44504324  0.96508939  0.37075876     0.86100
C686        C  0.05220423  0.53187437  0.38399620     0.92300
O687        O  0.46276888  0.96809015  0.10115292    -0.71400
O688        O  0.04169256  0.52565892  0.09134382    -0.72400
O689        O  0.03368943  0.95557119  0.10717462    -0.61000
O690        O  0.47466926  0.53687959  0.09149264    -0.69400
O691        O  0.47653150  0.54716790  0.13930298    -0.69000
O692        O  0.03434821  0.96493917  0.15525403    -0.60200
O693        O  0.04393381  0.53601280  0.13912025    -0.72700
O694        O  0.46316990  0.97820472  0.14905611    -0.71500
Cu695      Cu  0.50235773  0.99281740  0.09460640     1.04600
Cu696      Cu  0.50275977  0.50972491  0.14827166     1.04300
C697        C  0.45043003  0.96535661  0.12672523     0.94800
C698        C  0.05527527  0.53871606  0.11305773     0.93900
C699        C  0.04321018  0.94890955  0.13323368     0.86100
C700        C  0.46713551  0.55403911  0.11334767     0.92300
O701        O  0.14252557  0.77234117  0.46642052    -0.71400
O702        O  0.16089473  0.71695284  0.02534779    -0.72400
O703        O  0.16467055  0.71059697  0.46923604    -0.61000
O704        O  0.13828808  0.77834840  0.02359806    -0.69400
O705        O  0.08952382  0.76096084  0.02665584    -0.69000
O706        O  0.11599443  0.69272308  0.46908170    -0.60200
O707        O  0.11251323  0.69875438  0.02863418    -0.72700
O708        O  0.09379659  0.75468600  0.46642727    -0.71500
Cu709      Cu  0.15468485  0.74303313  0.49927993     1.04600
Cu710      Cu  0.10254965  0.72411086  0.49902823     1.04300
C711        C  0.11480470  0.77265353  0.45590759     0.94800
C712        C  0.14094596  0.69879034  0.03738340     0.93900
C713        C  0.14404484  0.69191632  0.45945046     0.86100
C714        C  0.11104503  0.77941041  0.03503328     0.92300
C715        C  0.33074092  0.88444525  0.35926254     0.88000
C716        C  0.33864391  0.85738971  0.38015551    -0.52200
C717        C  0.34933391  0.86684985  0.40712547     0.10900
C718        C  0.35123049  0.90250966  0.41044931     0.21900
C719        C  0.30729771  0.90412257  0.37660799    -0.52900
C720        C  0.31777065  0.91372521  0.40325407     0.11000
C721        C  0.36071720  0.90393259  0.35751770    -0.52500
C722        C  0.37159531  0.91369566  0.38431838     0.11600
H723        H  0.33594550  0.83311580  0.37424587     0.16100
H724        H  0.35980122  0.90998487  0.43240285     0.01900
H725        H  0.28386463  0.90932894  0.36872238     0.16400
H726        H  0.37206963  0.90902648  0.33668307     0.16200
C727        C  0.33076008  0.89219706  0.13673035     0.88000
C728        C  0.31226953  0.91142801  0.11426235    -0.52200
C729        C  0.32739511  0.91571826  0.08802623     0.10900
C730        C  0.35967839  0.89983506  0.08658287     0.21900
C731        C  0.33812153  0.86176772  0.12072984    -0.52900
C732        C  0.35291324  0.86541073  0.09435018     0.11000
C733        C  0.36228078  0.90887282  0.13964734    -0.52500
C734        C  0.37755799  0.91325169  0.11327656     0.11600
H735        H  0.28965443  0.92162030  0.11925558     0.16100
H736        H  0.37166868  0.90328554  0.06508902     0.01900
H737        H  0.33057295  0.83917000  0.12879618     0.16400
H738        H  0.37105483  0.91667898  0.16074783     0.16200
C739        C  0.17454483  0.61946465  0.14146861     0.88000
C740        C  0.19528459  0.59969471  0.12158086    -0.52200
C741        C  0.18056141  0.58824349  0.09756637     0.10900
C742        C  0.14572614  0.59786885  0.09522739     0.21900
C743        C  0.16184688  0.64503471  0.12084332    -0.52900
C744        C  0.14694758  0.63373430  0.09633118     0.11000
C745        C  0.14615714  0.59918872  0.14888920    -0.52500
C746        C  0.13062475  0.58787176  0.12494380     0.11600
H747        H  0.21996611  0.59558006  0.12584985     0.16100
H748        H  0.13401219  0.58903885  0.07517253     0.01900
H749        H  0.16501726  0.66967599  0.12487512     0.16400
H750        H  0.13872755  0.59456574  0.17139528     0.16200
C751        C  0.17271178  0.61109772  0.35882109     0.88000
C752        C  0.16106667  0.63711239  0.37887887    -0.52200
C753        C  0.14402030  0.62683457  0.40239284     0.10900
C754        C  0.13941613  0.59146358  0.40323748     0.21900
C755        C  0.19045319  0.58884051  0.37959333    -0.52900
C756        C  0.17290752  0.57857931  0.40291377     0.11000
C757        C  0.14315306  0.59345770  0.34968159    -0.52500
C758        C  0.12560512  0.58292498  0.37285652     0.11600
H759        H  0.16666275  0.66146640  0.37533414     0.16100
H760        H  0.12578844  0.58375849  0.42270972     0.01900
H761        H  0.21464027  0.58202309  0.37615580     0.16400
H762        H  0.13677812  0.58952875  0.32682345     0.16200
O763        O  0.23419584  0.53592403  0.03366994    -0.71400
O764        O  0.29088723  0.99206739  0.47548789    -0.72400
O765        O  0.25317545  0.54406061  0.47095586    -0.61000
O766        O  0.28825375  0.98469533  0.02918559    -0.69400
O767        O  0.24314480  0.95922726  0.03045410    -0.69000
O768        O  0.20917554  0.51681422  0.47027087    -0.60200
O769        O  0.25465224  0.95717518  0.46444463    -0.72700
O770        O  0.19403728  0.50351657  0.03040904    -0.71500
Cu771      Cu  0.27196946  0.51674235  0.50244383     1.04600
Cu772      Cu  0.22261061  0.97611765  0.49173098     1.04300
C773        C  0.20620656  0.52805807  0.04072338     0.94800
C774        C  0.28243538  0.96782939  0.46155975     0.93900
C775        C  0.22597025  0.53910759  0.46041362     0.86100
C776        C  0.27136777  0.96246881  0.03897435     0.92300
O777        O  0.41498923  0.73692159  0.02099527    -0.71400
O778        O  0.37887630  0.79652933  0.46958475    -0.72400
O779        O  0.40200069  0.80221831  0.01803170    -0.61000
O780        O  0.39921379  0.73375536  0.46716608    -0.69400
O781        O  0.35090733  0.71583062  0.47252989    -0.69000
O782        O  0.35241957  0.79248424  0.02898200    -0.60200
O783        O  0.33028898  0.77870180  0.47196043    -0.72700
O784        O  0.36530587  0.72757527  0.03190001    -0.71500
Cu785      Cu  0.39363134  0.76555857  0.49954104     1.04600
Cu786      Cu  0.34152186  0.74716753  0.50370282     1.04300
C787        C  0.39441573  0.72317122  0.03675448     0.94800
C788        C  0.35050883  0.79734019  0.46093196     0.93900
C789        C  0.37718182  0.80876407  0.03241251     0.86100
C790        C  0.37731813  0.71515000  0.45956443     0.92300
O791        O  0.19768294  0.90887027  0.22400492    -0.71400
O792        O  0.26859299  0.91679669  0.28027412    -0.72400
O793        O  0.26250888  0.92383205  0.21833624    -0.61000
O794        O  0.20428536  0.90046102  0.28586665    -0.69400
O795        O  0.21688132  0.85094707  0.27885147    -0.69000
O796        O  0.27523473  0.87405336  0.21401977    -0.60200
O797        O  0.28058589  0.86673553  0.27612001    -0.72700
O798        O  0.21076957  0.85953278  0.21667139    -0.71500
Cu799      Cu  0.23288238  0.91427046  0.25232913     1.04600
Cu800      Cu  0.24624852  0.86110401  0.24612616     1.04300
C801        C  0.19322104  0.88303504  0.21111676     0.94800
C802        C  0.28519756  0.89338249  0.28766824     0.93900
C803        C  0.27817232  0.90226720  0.20568901     0.86100
C804        C  0.20173920  0.87168297  0.29290151     0.92300
C805        C  0.11759617  0.82946082  0.38943981     0.88000
C806        C  0.09883509  0.81191901  0.36597216    -0.52200
C807        C  0.08914409  0.83024415  0.34299189     0.10900
C808        C  0.09925962  0.86435628  0.34561751     0.21900
C809        C  0.14461444  0.84452437  0.37226869    -0.52900
C810        C  0.13499774  0.86269904  0.34907570     0.11000
C811        C  0.09659283  0.85665345  0.39870847    -0.52500
C812        C  0.08660665  0.87488477  0.37588274     0.11600
H813        H  0.09320151  0.78741664  0.36794004     0.16100
H814        H  0.09200900  0.87871835  0.32646595     0.01900
H815        H  0.16905602  0.84054536  0.37752205     0.16400
H816        H  0.08977827  0.86078546  0.42143453     0.16200
C817        C  0.12102838  0.83179788  0.10237330     0.88000
C818        C  0.15011509  0.83945079  0.12038626    -0.52200
C819        C  0.14414082  0.85633980  0.14510250     0.10900
C820        C  0.10913246  0.86476347  0.14904634     0.21900
C821        C  0.09895867  0.81578777  0.12434997    -0.52900
C822        C  0.09268902  0.83306396  0.14885197     0.11000
C823        C  0.10586658  0.86311547  0.09540551    -0.52500
C824        C  0.09900269  0.88036002  0.11966997     0.11600
H825        H  0.17327377  0.83076633  0.11496088     0.16100
H826        H  0.10400369  0.87832417  0.16916153     0.01900
H827        H  0.08898941  0.79297273  0.12055617     0.16400
H828        H  0.09973659  0.87037832  0.07316121     0.16200
C829        C  0.39522320  0.67563842  0.10941353     0.88000
C830        C  0.36823613  0.66881913  0.13083353    -0.52200
C831        C  0.37741314  0.65436660  0.15625473     0.10900
C832        C  0.41267703  0.64770259  0.15765991     0.21900
C833        C  0.41879705  0.69433963  0.12775845    -0.52900
C834        C  0.42804579  0.67956416  0.15306032     0.11000
C835        C  0.41106014  0.64392903  0.10412820    -0.52500
C836        C  0.42039274  0.62930431  0.12957596     0.11600
H837        H  0.34406496  0.67489620  0.12626361     0.16100
H838        H  0.42004452  0.63592963  0.17839809     0.01900
H839        H  0.42754137  0.71696856  0.12105133     0.16400
H840        H  0.41483901  0.63453656  0.08227256     0.16200
C841        C  0.40507679  0.67994505  0.38575484     0.88000
C842        C  0.42630547  0.69574187  0.36315194    -0.52200
C843        C  0.43088277  0.67895309  0.33817627     0.10900
C844        C  0.41433162  0.64742601  0.33826374     0.21900
C845        C  0.37481848  0.67276491  0.36864105    -0.52900
C846        C  0.37984608  0.65542001  0.34377210     0.11000
C847        C  0.42041812  0.64815406  0.39156032    -0.52500
C848        C  0.42537043  0.63100037  0.36648519     0.11600
H849        H  0.43695221  0.71832200  0.36668163     0.16100
H850        H  0.41837512  0.63382157  0.31783810     0.01900
H851        H  0.35180143  0.68038322  0.37569972     0.16400
H852        H  0.42711935  0.64073650  0.41352749     0.16200
O853        O  0.49706214  0.71798166  0.21283582    -0.71400
O854        O  0.05262592  0.75127554  0.27544987    -0.72400
O855        O  0.49467143  0.71664444  0.27480976    -0.61000
O856        O  0.05266973  0.75275019  0.21278546    -0.69400
O857        O  0.02688918  0.79762014  0.21358546    -0.69000
O858        O  0.46780596  0.76092803  0.27488227    -0.60200
O859        O  0.02648513  0.79592615  0.27603267    -0.72700
O860        O  0.47035308  0.76229882  0.21231746    -0.71500
Cu861      Cu  0.02520943  0.73382116  0.24369427     1.04600
Cu862      Cu  0.49622313  0.78035397  0.24511543     1.04300
C863        C  0.47499140  0.73489438  0.20248273     0.94800
C864        C  0.04843327  0.77851000  0.28581750     0.93900
C865        C  0.47198275  0.73318305  0.28417024     0.86100
C866        C  0.04881927  0.78051225  0.20341822     0.92300
O867        O  0.24827478  0.59675249  0.28135829    -0.71400
O868        O  0.30947293  0.62547209  0.22075092    -0.72400
O869        O  0.30865911  0.62400939  0.28321405    -0.61000
O870        O  0.24852471  0.59954779  0.21924696    -0.69400
O871        O  0.22755748  0.64680606  0.22012703    -0.69000
O872        O  0.28753715  0.67117218  0.28397809    -0.60200
O873        O  0.28845318  0.67269338  0.22083873    -0.72700
O874        O  0.22717328  0.64392425  0.28306494    -0.71500
Cu875      Cu  0.27946121  0.60984443  0.25112105     1.04600
Cu876      Cu  0.25692987  0.66034308  0.25206506     1.04300
C877        C  0.22823740  0.61561501  0.29191012     0.94800
C878        C  0.30857819  0.65331209  0.21093658     0.93900
C879        C  0.30752886  0.65157438  0.29366863     0.86100
C880        C  0.22866526  0.61937687  0.20957220     0.92300
C881        C  0.45083358  0.72073153  0.30659459    -0.14900
C882        C  0.44989075  0.69033801  0.31333651    -0.30100
H883        H  0.43584984  0.73711237  0.31808265     0.14100
H884        H  0.46289554  0.67353767  0.30037599     0.14700
C885        C  0.35533503  0.64471380  0.32317770    -0.14900
C886        C  0.32957713  0.66133197  0.31690503    -0.30100
H887        H  0.36027179  0.62374409  0.31075836     0.14100
H888        H  0.32562194  0.68351824  0.32763765     0.14700
C889        C  0.45075525  0.69225700  0.17452525    -0.14900
C890        C  0.45423512  0.72288387  0.17920501    -0.30100
H891        H  0.46324747  0.67572229  0.18838277     0.14100
H892        H  0.43991240  0.73949831  0.16714717     0.14700
C893        C  0.35582168  0.64582805  0.18051845    -0.14900
C894        C  0.33048609  0.66295954  0.18746148    -0.30100
H895        H  0.36175069  0.62550949  0.19369062     0.14100
H896        H  0.32578530  0.68456623  0.17579704     0.14700
C897        C  0.07208990  0.82236613  0.17307058    -0.14900
C898        C  0.06975609  0.79211679  0.18016932    -0.30100
H899        H  0.05959575  0.83973199  0.18581799     0.14100
H900        H  0.08419253  0.77508992  0.16890543     0.14700
C901        C  0.06895458  0.78936624  0.30968260    -0.14900
C902        C  0.06961395  0.81922690  0.31820712    -0.30100
H903        H  0.08411596  0.77233427  0.32017636     0.14100
H904        H  0.05591994  0.83648295  0.30628946     0.14700
C905        C  0.16904294  0.86033636  0.16742558    -0.14900
C906        C  0.16757385  0.88073562  0.18955155    -0.30100
H907        H  0.18979881  0.84590374  0.16527656     0.14100
H908        H  0.14831224  0.89707823  0.19102785     0.14700
C909        C  0.18181204  0.86124600  0.31758437    -0.14900
C910        C  0.15656379  0.87685047  0.32710707    -0.30100
H911        H  0.18667068  0.83828985  0.32657371     0.14100
H912        H  0.14964809  0.89833088  0.31625310     0.14700
C913        C  0.40465948  0.70287161  0.06130885    -0.14900
C914        C  0.38450280  0.69235503  0.08179753    -0.30100
H915        H  0.42950069  0.69835616  0.06391501     0.14100
H916        H  0.35974417  0.69749191  0.07944054     0.14700
C917        C  0.38182656  0.69319632  0.43501716    -0.14900
C918        C  0.40132853  0.69998964  0.41282316    -0.30100
H919        H  0.36709964  0.67271276  0.43376470     0.14100
H920        H  0.41453000  0.72152985  0.41385936     0.14700
C921        C  0.19201077  0.62324118  0.33340344    -0.14900
C922        C  0.20671747  0.60406460  0.31478344    -0.30100
H923        H  0.19509403  0.64819527  0.33100055     0.14100
H924        H  0.20464915  0.57908711  0.31784960     0.14700
C925        C  0.18473275  0.55799776  0.42668897    -0.14900
C926        C  0.21441417  0.55916820  0.43628822    -0.30100
H927        H  0.16798098  0.54300101  0.43776043     0.14100
H928        H  0.23062828  0.57571943  0.42657544     0.14700
C929        C  0.19215462  0.63065136  0.16830327    -0.14900
C930        C  0.20728368  0.61010298  0.18578436    -0.30100
H931        H  0.19427533  0.65544333  0.17220915     0.14100
H932        H  0.20578029  0.58544062  0.18090810     0.14700
C933        C  0.19879610  0.57097249  0.07541595    -0.14900
C934        C  0.18694977  0.54706520  0.06066466    -0.30100
H935        H  0.22352956  0.57638067  0.07321796     0.14100
H936        H  0.16272141  0.54037332  0.06421564     0.14700
C937        C  0.31317192  0.88678023  0.16523633    -0.14900
C938        C  0.29932856  0.90966007  0.18076533    -0.30100
H939        H  0.30968553  0.86280675  0.17210289     0.14100
H940        H  0.30197352  0.93372500  0.17387134     0.14700
C941        C  0.31488861  0.93570057  0.06412073    -0.14900
C942        C  0.28403400  0.94044054  0.06070133    -0.30100
H943        H  0.33141019  0.94678024  0.04923678     0.14100
H944        H  0.26736205  0.92736845  0.07384514     0.14700
C945        C  0.35552327  0.83852144  0.07398928    -0.14900
C946        C  0.37708898  0.83580884  0.05264629    -0.30100
H947        H  0.33903199  0.81962988  0.07728083     0.14100
H948        H  0.39515818  0.85332016  0.05025875     0.14700
C949        C  0.31750715  0.87541600  0.32965462    -0.14900
C950        C  0.30849141  0.89801327  0.31092366    -0.30100
H951        H  0.31165136  0.85129496  0.32537737     0.14100
H952        H  0.31390713  0.92200622  0.31633531     0.14700
C953        C  0.29620057  0.92984029  0.42356260    -0.14900
C954        C  0.30529917  0.95187969  0.44239213    -0.30100
H955        H  0.27147338  0.92455683  0.42152576     0.14100
H956        H  0.32965910  0.95882241  0.44323940     0.14700
C957        C  0.35795449  0.84510924  0.43126506    -0.14900
C958        C  0.34114859  0.81945221  0.43747930    -0.30100
H959        H  0.37771377  0.85123734  0.44506286     0.14100
H960        H  0.31982896  0.81478103  0.42530922     0.14700
C961        C  0.15300382  0.67007700  0.43617635    -0.14900
C962        C  0.13406506  0.64741966  0.42659319    -0.30100
H963        H  0.17608792  0.67283417  0.42652191     0.14100
H964        H  0.11194080  0.64286345  0.43749709     0.14700
C965        C  0.15130795  0.67857733  0.06209668    -0.14900
C966        C  0.13510042  0.65375398  0.07186118    -0.30100
H967        H  0.17370583  0.68389767  0.07212236     0.14100
H968        H  0.11404975  0.64661232  0.06041182     0.14700
C969        C  0.10454625  0.80135073  0.05885419    -0.14900
C970        C  0.12773771  0.81260231  0.07556558    -0.30100
H971        H  0.08033887  0.80625310  0.06450395     0.14100
H972        H  0.15187257  0.80656344  0.07063565     0.14700
C973        C  0.10639322  0.79360219  0.43131235    -0.14900
C974        C  0.12764999  0.80911653  0.41506666    -0.30100
H975        H  0.08179561  0.79558285  0.42564379     0.14100
H976        H  0.15237776  0.80679606  0.42004643     0.14700
C977        C  0.06443607  0.92240252  0.13843251    -0.14900
C978        C  0.08038689  0.90924846  0.11633031    -0.30100
H979        H  0.06643637  0.91352535  0.16076207     0.14100
H980        H  0.07786091  0.91873196  0.09419051     0.14700
C981        C  0.10155248  0.56905815  0.12924926    -0.14900
C982        C  0.08427623  0.55691499  0.10737357    -0.30100
H983        H  0.09392562  0.56524113  0.15182789     0.14100
H984        H  0.09148710  0.55993882  0.08464562     0.14700
C985        C  0.43799651  0.59949711  0.13165799    -0.14900
C986        C  0.44766180  0.58221909  0.10864701    -0.30100
H987        H  0.44407470  0.59196743  0.15380296     0.14100
H988        H  0.44179599  0.58885661  0.08624530     0.14700
C989        C  0.40743961  0.93084413  0.10946046    -0.14900
C990        C  0.42121297  0.94737376  0.13107592    -0.30100
H991        H  0.41793180  0.93078488  0.08764167     0.14100
H992        H  0.41096546  0.94804559  0.15291901     0.14700
C993        C  0.09635370  0.56503569  0.36791590    -0.14900
C994        C  0.08097794  0.54988511  0.38948620    -0.30100
H995        H  0.08756710  0.56380941  0.34547733     0.14100
H996        H  0.08962818  0.55011395  0.41191338     0.14700
C997        C  0.06515406  0.90151017  0.38113788    -0.14900
C998        C  0.05133932  0.91780605  0.35941098    -0.30100
H999        H  0.06060533  0.90789156  0.40390495     0.14100
H1000       H  0.05524702  0.91188157  0.33652594     0.14700
C1001       C  0.41635960  0.94639906  0.36632658    -0.14900
C1002       C  0.40045519  0.93271505  0.38861284    -0.30100
H1003       H  0.40811938  0.94441020  0.34381983     0.14100
H1004       H  0.40856806  0.93577971  0.41109898     0.14700
C1005       C  0.45068998  0.58446255  0.38906405    -0.14900
C1006       C  0.44099442  0.60005772  0.36509009    -0.30100
H1007       H  0.44666982  0.59389177  0.41083264     0.14100
H1008       H  0.44528657  0.59026114  0.34343877     0.14700
O1009       O  0.01883567  0.95961474  0.88168879    -0.71400
O1010       O  0.47399994  0.52933116  0.88966875    -0.72400
O1011       O  0.46233008  0.97201156  0.88911601    -0.61000
O1012       O  0.03547350  0.51864692  0.88389038    -0.69400
O1013       O  0.03044209  0.52332150  0.83534438    -0.69000
O1014       O  0.45989685  0.98069500  0.84092105    -0.60200
O1015       O  0.47111086  0.53727886  0.84134241    -0.72700
O1016       O  0.01410084  0.96711231  0.83347963    -0.71500
Cu1017     Cu  0.99570101  0.49343901  0.88725241     1.04600
Cu1018     Cu  0.49846991  0.00628856  0.84106751     1.04300
C1019       C  0.02470288  0.95128627  0.85529638     0.94800
C1020       C  0.46524557  0.54582612  0.86785905     0.93900
C1021       C  0.44868841  0.96831979  0.86415335     0.86100
C1022       C  0.04539669  0.52879987  0.85896577     0.92300
O1023       O  0.45624667  0.97212766  0.60264034    -0.71400
O1024       O  0.03814080  0.51619871  0.59793605    -0.72400
O1025       O  0.01682633  0.95830554  0.60530074    -0.61000
O1026       O  0.47447235  0.53220575  0.59341221    -0.69400
O1027       O  0.47878723  0.54257199  0.64107261    -0.69000
O1028       O  0.02170638  0.96227117  0.65383687    -0.60200
O1029       O  0.04135349  0.52664848  0.64569023    -0.72700
O1030       O  0.45802354  0.98331745  0.65028790    -0.71500
Cu1031     Cu  0.49485447  0.99711624  0.59376557     1.04600
Cu1032     Cu  0.50525237  0.50480027  0.64841011     1.04300
C1033       C  0.44480856  0.96978283  0.62860956     0.94800
C1034       C  0.05163134  0.52982172  0.61932614     0.93900
C1035       C  0.02728387  0.94790076  0.63002807     0.86100
C1036       C  0.46797501  0.54934719  0.61559764     0.92300
O1037       O  0.13464782  0.77658068  0.96108559    -0.71400
O1038       O  0.16337354  0.71242968  0.53195355    -0.72400
O1039       O  0.15755323  0.71493355  0.96258154    -0.61000
O1040       O  0.14128956  0.77441588  0.52937638    -0.69400
O1041       O  0.09250564  0.75687704  0.52886762    -0.69000
O1042       O  0.10925100  0.69638946  0.96585927    -0.60200
O1043       O  0.11472803  0.69456825  0.53167132    -0.72700
O1044       O  0.08614850  0.75867223  0.96418225    -0.71500
Cu1045     Cu  0.14950603  0.74729314  0.99301011     1.04600
Cu1046     Cu  0.09761389  0.72807259  0.99640009     1.04300
C1047       C  0.10619215  0.77696149  0.95246107     0.94800
C1048       C  0.14243584  0.69418873  0.54219794     0.93900
C1049       C  0.13662252  0.69569457  0.95455625     0.86100
C1050       C  0.11312043  0.77557929  0.53868005     0.92300
C1051       C  0.32844816  0.89438898  0.85874340     0.88000
C1052       C  0.33778509  0.86554325  0.87689096    -0.52200
C1053       C  0.35290750  0.87233580  0.90255384     0.10900
C1054       C  0.35733790  0.90720806  0.90773919     0.21900
C1055       C  0.30904361  0.91418158  0.88012346    -0.52900
C1056       C  0.32429471  0.92102493  0.90572910     0.11000
C1057       C  0.35922615  0.91253489  0.85436340    -0.52500
C1058       C  0.37446094  0.91924897  0.88030388     0.11600
H1059       H  0.33304169  0.84188817  0.86997425     0.16100
H1060       H  0.36943442  0.91256381  0.92878865     0.01900
H1061       H  0.28568954  0.92256887  0.87504348     0.16400
H1062       H  0.36783366  0.91899348  0.83270757     0.16200
C1063       C  0.32813089  0.89080665  0.63710747     0.88000
C1064       C  0.30743478  0.90916203  0.61561011    -0.52200
C1065       C  0.32197114  0.91677518  0.58987381     0.10900
C1066       C  0.35575812  0.90483011  0.58771138     0.21900
C1067       C  0.33892828  0.86230050  0.61946346    -0.52900
C1068       C  0.35328975  0.86965958  0.59334907     0.11000
C1069       C  0.35773696  0.91064155  0.64104068    -0.52500
C1070       C  0.37231431  0.91799445  0.61498658     0.11600
H1071       H  0.28370114  0.91635518  0.62079278     0.16100
H1072       H  0.36729822  0.91085191  0.56648488     0.01900
H1073       H  0.33522359  0.83855685  0.62686261     0.16400
H1074       H  0.36609370  0.91784244  0.66249762     0.16200
C1075       C  0.17061782  0.60996148  0.64301057     0.88000
C1076       C  0.18755887  0.58806068  0.62172769    -0.52200
C1077       C  0.16984263  0.57921343  0.59819227     0.10900
C1078       C  0.13660877  0.59294412  0.59834328     0.21900
C1079       C  0.15976121  0.63719997  0.62357731    -0.52900
C1080       C  0.14218231  0.62826606  0.59988367     0.11000
C1081       C  0.14063572  0.59301977  0.65188685    -0.52500
C1082       C  0.12277639  0.58374692  0.62870208     0.11600
H1083       H  0.21147671  0.58033623  0.62514018     0.16100
H1084       H  0.12251362  0.58608239  0.57894407     0.01900
H1085       H  0.16614667  0.66119912  0.62771565     0.16400
H1086       H  0.13437132  0.58825910  0.67468586     0.16200
C1087       C  0.16359948  0.60429303  0.86064254     0.88000
C1088       C  0.15361701  0.63229551  0.87912072    -0.52200
C1089       C  0.13733517  0.62464124  0.90398039     0.10900
C1090       C  0.13191209  0.58960884  0.90771998     0.21900
C1091       C  0.18149202  0.58312162  0.88224218    -0.52900
C1092       C  0.16457612  0.57509627  0.90674352     0.11000
C1093       C  0.13308541  0.58678494  0.85410385    -0.52500
C1094       C  0.11653890  0.57892628  0.87905138     0.11600
H1095       H  0.15930234  0.65610121  0.87316278     0.16100
H1096       H  0.11857746  0.58343649  0.92795469     0.01900
H1097       H  0.20487799  0.57443323  0.87786553     0.16400
H1098       H  0.12596629  0.58093682  0.83189177     0.16200
O1099       O  0.25243808  0.54328317  0.53385486    -0.71400
O1100       O  0.28620936  0.98634029  0.96741641    -0.72400
O1101       O  0.24267386  0.53561151  0.97174127    -0.61000
O1102       O  0.27619228  0.98419889  0.53500462    -0.69400
O1103       O  0.23929324  0.94961386  0.52484962    -0.69000
O1104       O  0.20055222  0.50566894  0.96879364    -0.60200
O1105       O  0.24137968  0.96040428  0.96796578    -0.72700
O1106       O  0.20799545  0.51674993  0.53276820    -0.71500
Cu1107     Cu  0.26039541  0.51096140  0.00463332     1.04600
Cu1108     Cu  0.22392068  0.98732781  0.00018293     1.04300
C1109       C  0.22459243  0.53877527  0.54311904     0.94800
C1110       C  0.26889929  0.96450144  0.95774625     0.93900
C1111       C  0.21652310  0.52913356  0.96001518     0.86100
C1112       C  0.26328279  0.95789828  0.53956667     0.92300
O1113       O  0.40559968  0.73354904  0.52983621    -0.71400
O1114       O  0.38764286  0.79667425  0.95751050    -0.72400
O1115       O  0.38375369  0.79633669  0.53203919    -0.61000
O1116       O  0.40066048  0.73179663  0.95967286    -0.69400
O1117       O  0.35105233  0.72198769  0.97044276    -0.69000
O1118       O  0.33495577  0.77913651  0.53498478    -0.60200
O1119       O  0.33799640  0.78627469  0.96790857    -0.72700
O1120       O  0.35669473  0.71716198  0.53479029    -0.71500
Cu1121     Cu  0.40308873  0.76708648  0.98870778     1.04600
Cu1122     Cu  0.35000673  0.75666917  0.00027114     1.04300
C1123       C  0.38551820  0.71585986  0.54218176     0.94800
C1124       C  0.35847078  0.80089071  0.95282324     0.93900
C1125       C  0.35646361  0.79743439  0.54362184     0.86100
C1126       C  0.37555542  0.71639534  0.95521571     0.92300
O1127       O  0.19420104  0.89418544  0.71558217    -0.71400
O1128       O  0.25669940  0.91869597  0.77842641    -0.72400
O1129       O  0.25659368  0.91761914  0.71550054    -0.61000
O1130       O  0.19429935  0.89493947  0.77873266    -0.69400
O1131       O  0.21380763  0.84706870  0.77959221    -0.69000
O1132       O  0.27523912  0.86942276  0.71655231    -0.60200
O1133       O  0.27540558  0.87056438  0.77942122    -0.72700
O1134       O  0.21352190  0.84628563  0.71663898    -0.71500
Cu1135     Cu  0.22479406  0.90809648  0.74705298     1.04600
Cu1136     Cu  0.24510710  0.85671259  0.74808721     1.04300
C1137       C  0.19444317  0.86628585  0.70592819     0.94800
C1138       C  0.27558683  0.89845384  0.78905935     0.93900
C1139       C  0.27543558  0.89692384  0.70584631     0.86100
C1140       C  0.19451633  0.86728238  0.78922280     0.92300
C1141       C  0.10624986  0.83325508  0.88512335     0.88000
C1142       C  0.08624294  0.81534763  0.86287911    -0.52200
C1143       C  0.07732896  0.83272383  0.83896747     0.10900
C1144       C  0.08932611  0.86628350  0.83942535     0.21900
C1145       C  0.13374377  0.84573549  0.86688224    -0.52900
C1146       C  0.12492102  0.86274540  0.84271309     0.11000
C1147       C  0.08683249  0.86215810  0.89292136    -0.52500
C1148       C  0.07765504  0.87949119  0.86901862     0.11600
H1149       H  0.07942981  0.79126876  0.86611282     0.16100
H1150       H  0.08261726  0.87977866  0.81953426     0.01900
H1151       H  0.15799887  0.84090543  0.87227483     0.16400
H1152       H  0.08052782  0.86810530  0.91540548     0.16200
C1153       C  0.11356079  0.83285152  0.60379662     0.88000
C1154       C  0.13976269  0.84538440  0.62356269    -0.52200
C1155       C  0.12915077  0.86250281  0.64691903     0.10900
C1156       C  0.09327154  0.86596799  0.64771965     0.21900
C1157       C  0.09208468  0.81497963  0.62499083    -0.52900
C1158       C  0.08140950  0.83226451  0.64805541     0.11000
C1159       C  0.09476102  0.86157670  0.59419318    -0.52500
C1160       C  0.08362611  0.87891407  0.61699774     0.11600
H1161       H  0.16433966  0.84033258  0.61994741     0.16100
H1162       H  0.08523730  0.87956828  0.66697533     0.01900
H1163       H  0.08569701  0.79086066  0.62160495     0.16400
H1164       H  0.08996629  0.86721024  0.57126192     0.16200
C1165       C  0.38745794  0.66542052  0.61259121     0.88000
C1166       C  0.36095334  0.65516605  0.63328295    -0.52200
C1167       C  0.37119248  0.64173133  0.65889281     0.10900
C1168       C  0.40696249  0.63932591  0.66107133     0.21900
C1169       C  0.40790762  0.68666483  0.63159345    -0.52900
C1170       C  0.41818451  0.67296878  0.65698508     0.11000
C1171       C  0.40724374  0.63599620  0.60749002    -0.52500
C1172       C  0.41761570  0.62223992  0.63301130     0.11600
H1173       H  0.33636183  0.65874057  0.62836643     0.16100
H1174       H  0.41521099  0.62836985  0.68191137     0.01900
H1175       H  0.41397246  0.71023017  0.62515831     0.16400
H1176       H  0.41269848  0.62747528  0.58562905     0.16200
C1177       C  0.40042245  0.66871225  0.88622826     0.88000
C1178       C  0.41707838  0.68922088  0.86339567    -0.52200
C1179       C  0.42090321  0.67552396  0.83662114     0.10900
C1180       C  0.40759682  0.64265876  0.83490914     0.21900
C1181       C  0.36924268  0.65968601  0.87122886    -0.52900
C1182       C  0.37343298  0.64579521  0.84435623     0.11000
C1183       C  0.41965309  0.63834173  0.88702289    -0.52500
C1184       C  0.42320231  0.62467004  0.85992456     0.11600
H1185       H  0.42624938  0.71209368  0.86850731     0.16100
H1186       H  0.41066978  0.63173536  0.81292463     0.01900
H1187       H  0.34625744  0.66313598  0.88070699     0.16400
H1188       H  0.42971790  0.62910478  0.90718878     0.16200
O1189       O  0.48440942  0.71684366  0.71345160    -0.71400
O1190       O  0.04228563  0.75144510  0.77400045    -0.72400
O1191       O  0.48400209  0.71645579  0.77499658    -0.61000
O1192       O  0.04222509  0.75027861  0.71142948    -0.69400
O1193       O  0.01521041  0.79442417  0.71063815    -0.69000
O1194       O  0.45686478  0.76055151  0.77556490    -0.60200
O1195       O  0.01545038  0.79570231  0.77288784    -0.72700
O1196       O  0.45698457  0.76073932  0.71281521    -0.71500
Cu1197     Cu  0.01507083  0.73220057  0.74330437     1.04600
Cu1198     Cu  0.48422406  0.77950088  0.74442368     1.04300
C1199       C  0.46162535  0.73303717  0.70367049     0.94800
C1200       C  0.03766753  0.77902045  0.78327563     0.93900
C1201       C  0.46151907  0.73292326  0.78497137     0.86100
C1202       C  0.03774625  0.77765499  0.70122122     0.92300
O1203       O  0.24019887  0.58426105  0.78433466    -0.71400
O1204       O  0.30384049  0.61157761  0.72449624    -0.72400
O1205       O  0.30106805  0.61084813  0.78717075    -0.61000
O1206       O  0.24286283  0.58600446  0.72187409    -0.69400
O1207       O  0.22270235  0.63363294  0.72188294    -0.69000
O1208       O  0.28022464  0.65816324  0.78707496    -0.60200
O1209       O  0.28319044  0.65897148  0.72408403    -0.72700
O1210       O  0.21981278  0.63175598  0.78459957    -0.71500
Cu1211     Cu  0.27272240  0.59649820  0.75452756     1.04600
Cu1212     Cu  0.25076679  0.64726850  0.75445569     1.04300
C1213       C  0.22011762  0.60366985  0.79404246     0.94800
C1214       C  0.30319123  0.63936267  0.71443147     0.93900
C1215       C  0.29980369  0.63852730  0.79735033     0.86100
C1216       C  0.22392078  0.60620500  0.71135192     0.92300
C1217       C  0.44105441  0.72011060  0.80792665    -0.14900
C1218       C  0.43889394  0.68932962  0.81218296    -0.30100
H1219       H  0.42752883  0.73610358  0.82133478     0.14100
H1220       H  0.45054607  0.67347894  0.79715188     0.14700
C1221       C  0.34840042  0.63337560  0.82544334    -0.14900
C1222       C  0.32151313  0.64853650  0.82065964    -0.30100
H1223       H  0.35412202  0.61319149  0.81216215     0.14100
H1224       H  0.31687796  0.67028445  0.83194657     0.14700
C1225       C  0.43872441  0.68827181  0.67864278    -0.14900
C1226       C  0.44038732  0.71931399  0.68185745    -0.30100
H1227       H  0.45221344  0.67317226  0.69311841     0.14100
H1228       H  0.42527623  0.73470301  0.66923536     0.14700
C1229       C  0.35015923  0.63203040  0.68322430    -0.14900
C1230       C  0.32488351  0.64891923  0.69074992    -0.30100
H1231       H  0.35660793  0.61168768  0.69611363     0.14100
H1232       H  0.31998008  0.67058539  0.67926116     0.14700
C1233       C  0.06031009  0.82007344  0.67128612    -0.14900
C1234       C  0.05890371  0.78967027  0.67828348    -0.30100
H1235       H  0.04641339  0.83676422  0.68354688     0.14100
H1236       H  0.07441388  0.77312535  0.66769337     0.14700
C1237       C  0.05797523  0.79102519  0.80668519    -0.14900
C1238       C  0.05762656  0.82097824  0.81474241    -0.30100
H1239       H  0.07381457  0.77473779  0.81737651     0.14100
H1240       H  0.04338695  0.83767138  0.80267986     0.14700
C1241       C  0.14968446  0.87393473  0.67108935    -0.14900
C1242       C  0.17346673  0.85653805  0.68165430    -0.30100
H1243       H  0.14374194  0.89577115  0.68161671     0.14100
H1244       H  0.17760342  0.83368071  0.67235072     0.14700
C1245       C  0.17285534  0.85796342  0.81290627    -0.14900
C1246       C  0.14713536  0.87427613  0.82005843    -0.30100
H1247       H  0.17754851  0.83593690  0.82386413     0.14100
H1248       H  0.14087061  0.89490956  0.80748274     0.14700
C1249       C  0.39608326  0.69476608  0.56587405    -0.14900
C1250       C  0.37604847  0.68130818  0.58483158    -0.30100
H1251       H  0.42107550  0.69273873  0.56975645     0.14100
H1252       H  0.35103530  0.68398685  0.58152069     0.14700
C1253       C  0.37406106  0.69337450  0.93101110    -0.14900
C1254       C  0.39980771  0.68521133  0.91578589    -0.30100
H1255       H  0.35119620  0.68527731  0.92442258     0.14100
H1256       H  0.42241055  0.69291677  0.92383743     0.14700
C1257       C  0.18242651  0.61390552  0.83386614    -0.14900
C1258       C  0.19778678  0.59339762  0.81693772    -0.30100
H1259       H  0.18543258  0.63859904  0.82957860     0.14100
H1260       H  0.19598245  0.56870128  0.82173926     0.14700
C1261       C  0.17528629  0.55303065  0.92970251    -0.14900
C1262       C  0.20557473  0.54942456  0.93608669    -0.30100
H1263       H  0.15775221  0.54089428  0.94268246     0.14100
H1264       H  0.22294242  0.56361576  0.92494273     0.14700
C1265       C  0.19035832  0.61924036  0.66899124    -0.14900
C1266       C  0.20356510  0.59768153  0.68662904    -0.30100
H1267       H  0.19442676  0.64378380  0.67297320     0.14100
H1268       H  0.20044635  0.57315571  0.68188386     0.14700
C1269       C  0.18171853  0.55922018  0.57414678    -0.14900
C1270       C  0.21208054  0.55905740  0.56635919    -0.30100
H1271       H  0.16495702  0.54535659  0.56199766     0.14100
H1272       H  0.22840361  0.57465653  0.57704785     0.14700
C1273       C  0.31126850  0.88284087  0.66541079    -0.14900
C1274       C  0.29681672  0.90485158  0.68147626    -0.30100
H1275       H  0.30876995  0.85851186  0.67147339     0.14100
H1276       H  0.29851557  0.92907559  0.67479566     0.14700
C1277       C  0.30754375  0.93662596  0.56701848    -0.14900
C1278       C  0.27664279  0.93674693  0.56169690    -0.30100
H1279       H  0.32299005  0.95112151  0.55383606     0.14100
H1280       H  0.26132358  0.92026093  0.57269832     0.14700
C1281       C  0.36409039  0.84642449  0.57140455    -0.14900
C1282       C  0.34884996  0.81951382  0.56738480    -0.30100
H1283       H  0.38289503  0.85289172  0.55650970     0.14100
H1284       H  0.32822557  0.81448315  0.58052970     0.14700
C1285       C  0.31107273  0.88608060  0.83065805    -0.14900
C1286       C  0.29694487  0.90743221  0.81333727    -0.30100
H1287       H  0.30803778  0.86160303  0.82564775     0.14100
H1288       H  0.29890726  0.93190883  0.81878549     0.14700
C1289       C  0.31144268  0.94104698  0.92918446    -0.14900
C1290       C  0.28067736  0.94382892  0.93449878    -0.30100
H1291       H  0.32808603  0.95306219  0.94313343     0.14100
H1292       H  0.26392912  0.93003747  0.92227486     0.14700
C1293       C  0.36432745  0.84871661  0.92373826    -0.14900
C1294       C  0.34801541  0.82291758  0.92996890    -0.30100
H1295       H  0.38530314  0.85397867  0.93623101     0.14100
H1296       H  0.32537362  0.81915978  0.91976406     0.14700
C1297       C  0.14471102  0.67295483  0.93176032    -0.14900
C1298       C  0.12744385  0.64760882  0.92630450    -0.30100
H1299       H  0.16651409  0.67661033  0.91995893     0.14100
H1300       H  0.10704621  0.64247566  0.93973032     0.14700
C1301       C  0.15079055  0.67303981  0.56668374    -0.14900
C1302       C  0.13216502  0.64983532  0.57605930    -0.30100
H1303       H  0.17358293  0.67616086  0.57676741     0.14100
H1304       H  0.11044267  0.64499898  0.56462047     0.14700
C1305       C  0.10383803  0.79823307  0.56123842    -0.14900
C1306       C  0.12458761  0.81305239  0.57841363    -0.30100
H1307       H  0.07898401  0.80122435  0.56536389     0.14100
H1308       H  0.14949903  0.80949877  0.57514523     0.14700
C1309       C  0.09606160  0.79827842  0.92853763    -0.14900
C1310       C  0.11652956  0.81378042  0.91137649    -0.30100
H1311       H  0.07122688  0.80007813  0.92387251     0.14100
H1312       H  0.14140353  0.81126885  0.91556522     0.14700
C1313       C  0.04576071  0.91905294  0.63292829    -0.14900
C1314       C  0.06327657  0.90659146  0.61154122    -0.30100
H1315       H  0.04602385  0.90876663  0.65477747     0.14100
H1316       H  0.06266308  0.91676908  0.58956764     0.14700
C1317       C  0.09368079  0.56578236  0.63392133    -0.14900
C1318       C  0.07939660  0.54909709  0.61299779    -0.30100
H1319       H  0.08458561  0.56510599  0.65630647     0.14100
H1320       H  0.08845320  0.54884390  0.59067330     0.14700
C1321       C  0.43814122  0.59422672  0.63493411    -0.14900
C1322       C  0.44762055  0.57706043  0.61173410    -0.30100
H1323       H  0.44565742  0.58745841  0.65690972     0.14100
H1324       H  0.44007402  0.58288800  0.58959139     0.14700
C1325       C  0.40132167  0.93672491  0.61166919    -0.14900
C1326       C  0.41610526  0.95133307  0.63382158    -0.30100
H1327       H  0.41067604  0.93873993  0.58949133     0.14100
H1328       H  0.40714229  0.95005246  0.65613732     0.14700
C1329       C  0.08756842  0.56013204  0.88028110    -0.14900
C1330       C  0.07416812  0.54729791  0.85666458    -0.30100
H1331       H  0.07716025  0.55638134  0.90185534     0.14100
H1332       H  0.08372303  0.55106415  0.83480962     0.14700
C1333       C  0.05768670  0.90761668  0.87255052    -0.14900
C1334       C  0.04424176  0.92337080  0.85005629    -0.30100
H1335       H  0.05354679  0.91538123  0.89499769     0.14100
H1336       H  0.04758151  0.91611312  0.82742759     0.14700
C1337       C  0.41954388  0.95012450  0.86090030    -0.14900
C1338       C  0.40460220  0.93639446  0.88344504    -0.30100
H1339       H  0.40987243  0.94877242  0.83885346     0.14100
H1340       H  0.41437872  0.93831665  0.90546148     0.14700
C1341       C  0.44858445  0.57496734  0.87444157    -0.14900
C1342       C  0.44018522  0.59535373  0.85356410    -0.30100
H1343       H  0.44333667  0.57961867  0.89740767     0.14100
H1344       H  0.44500367  0.59002897  0.83061043     0.14700
O1345       O  0.52962712  0.46705326  0.41530649    -0.71400
O1346       O  0.97302963  0.02984020  0.40632839    -0.72400
O1347       O  0.95986821  0.46938918  0.39283879    -0.61000
O1348       O  0.53490323  0.01962858  0.40637616    -0.69400
O1349       O  0.53567281  0.03017969  0.35846188    -0.69000
O1350       O  0.96241198  0.47973934  0.34495198    -0.60200
O1351       O  0.97352982  0.03947988  0.35824356    -0.72700
O1352       O  0.52334278  0.46013924  0.36722294    -0.71500
Cu1353     Cu  0.49600169  0.99356077  0.40294757     1.04600
Cu1354     Cu  0.00184163  0.50503521  0.34971312     1.04300
C1355       C  0.53445654  0.45119580  0.39214200     0.94800
C1356       C  0.96580047  0.04720276  0.38443038     0.93900
C1357       C  0.94869722  0.46674015  0.36681307     0.86100
C1358       C  0.54770691  0.03282453  0.38415077     0.92300
O1359       O  0.96408988  0.47383036  0.10370436    -0.71400
O1360       O  0.54182128  0.01787205  0.09115863    -0.72400
O1361       O  0.52790004  0.46057251  0.10693901    -0.61000
O1362       O  0.97695039  0.02960204  0.09481640    -0.69400
O1363       O  0.97906571  0.03853323  0.14291178    -0.69000
O1364       O  0.52872350  0.47171627  0.15464614    -0.60200
O1365       O  0.54397148  0.02570183  0.13942664    -0.72700
O1366       O  0.96522994  0.48479395  0.15140424    -0.71500
Cu1367     Cu  0.00285253  0.49956072  0.09624224     1.04600
Cu1368     Cu  0.00663352  0.00198098  0.15035415     1.04300
C1369       C  0.95239148  0.47111632  0.12950906     0.94800
C1370       C  0.55553694  0.02932564  0.11359324     0.93900
C1371       C  0.53656354  0.45418414  0.13332762     0.86100
C1372       C  0.96951735  0.04602392  0.11719691     0.92300
O1373       O  0.63745372  0.27334444  0.46738826    -0.71400
O1374       O  0.64688351  0.21159937  0.03641809    -0.72400
O1375       O  0.66176763  0.21174420  0.46521458    -0.61000
O1376       O  0.62861551  0.27390725  0.03082173    -0.69400
O1377       O  0.57885126  0.25966001  0.03441120    -0.69000
O1378       O  0.61378328  0.19219933  0.46556777    -0.60200
O1379       O  0.59754818  0.19640325  0.04115477    -0.72700
O1380       O  0.58939255  0.25406730  0.46735816    -0.71500
Cu1381     Cu  0.65174479  0.24189981  0.49771439     1.04600
Cu1382     Cu  0.60031896  0.22124923  0.49768732     1.04300
C1383       C  0.60934821  0.27379009  0.45780431     0.94800
C1384       C  0.62615628  0.19537396  0.04948807     0.93900
C1385       C  0.64157941  0.19261483  0.45527926     0.86100
C1386       C  0.60137378  0.27715686  0.04205055     0.92300
C1387       C  0.83023564  0.39063148  0.35544863     0.88000
C1388       C  0.83801828  0.36328521  0.37604743    -0.52200
C1389       C  0.84991499  0.37214646  0.40257928     0.10900
C1390       C  0.85352764  0.40743032  0.40594351     0.21900
C1391       C  0.80828000  0.41115382  0.37375151    -0.52900
C1392       C  0.82036106  0.42006605  0.40013675     0.11000
C1393       C  0.86084016  0.40919420  0.35263334    -0.52500
C1394       C  0.87320867  0.41805337  0.37925335     0.11600
H1395       H  0.83380129  0.33912570  0.37048927     0.16100
H1396       H  0.86346924  0.41404758  0.42760370     0.01900
H1397       H  0.78468967  0.41718670  0.36687628     0.16400
H1398       H  0.87149921  0.41435046  0.33149268     0.16200
C1399       C  0.83220395  0.40018170  0.14391501     0.88000
C1400       C  0.81325986  0.41878374  0.12126280    -0.52200
C1401       C  0.82707833  0.42077442  0.09426884     0.10900
C1402       C  0.85927740  0.40463935  0.09266428     0.21900
C1403       C  0.83819831  0.36867516  0.12925685    -0.52900
C1404       C  0.85201113  0.37074958  0.10224329     0.11000
C1405       C  0.86408846  0.41618848  0.14505702    -0.52500
C1406       C  0.87850986  0.41911722  0.11818900     0.11600
H1407       H  0.79072639  0.42927450  0.12616870     0.16100
H1408       H  0.87046512  0.40667798  0.07063902     0.01900
H1409       H  0.83050981  0.34671949  0.13870186     0.16400
H1410       H  0.87360373  0.42486771  0.16552317     0.16200
C1411       C  0.67168280  0.11187708  0.14491969     0.88000
C1412       C  0.69308455  0.09639643  0.12239825    -0.52200
C1413       C  0.67814187  0.08538215  0.09832243     0.10900
C1414       C  0.64251754  0.09157290  0.09840292     0.21900
C1415       C  0.65493324  0.13759225  0.12743696    -0.52900
C1416       C  0.63981590  0.12704957  0.10276086     0.11000
C1417       C  0.64614434  0.08800450  0.15193703    -0.52500
C1418       C  0.63034781  0.07750881  0.12777985     0.11600
H1419       H  0.71823870  0.09438285  0.12522848     0.16100
H1420       H  0.63078862  0.08344452  0.07810708     0.01900
H1421       H  0.65553055  0.16189535  0.13372658     0.16400
H1422       H  0.64032420  0.08091171  0.17430112     0.16200
C1423       C  0.67115983  0.10768274  0.35616775     0.88000
C1424       C  0.66077102  0.13430643  0.37623068    -0.52200
C1425       C  0.64365519  0.12496577  0.40008173     0.10900
C1426       C  0.63771852  0.08968002  0.40119028     0.21900
C1427       C  0.68820686  0.08490779  0.37684122    -0.52900
C1428       C  0.67064812  0.07530729  0.40034158     0.11000
C1429       C  0.64071211  0.09109805  0.34754361    -0.52500
C1430       C  0.62297324  0.08148910  0.37105760     0.11600
H1431       H  0.66695783  0.15841159  0.37214508     0.16100
H1432       H  0.62419028  0.08255708  0.42091052     0.01900
H1433       H  0.71195678  0.07691529  0.37301306     0.16400
H1434       H  0.63391109  0.08718221  0.32480262     0.16200
O1435       O  0.73792389  0.03765195  0.03768397    -0.71400
O1436       O  0.80127491  0.49151136  0.48015970    -0.72400
O1437       O  0.74763812  0.04003963  0.47006702    -0.61000
O1438       O  0.77993403  0.47957074  0.03295782    -0.69400
O1439       O  0.73939093  0.44757308  0.03058151    -0.69000
O1440       O  0.71030470  0.00593222  0.45998830    -0.60200
O1441       O  0.76340418  0.45842920  0.46886406    -0.72700
O1442       O  0.70052305  0.00336565  0.02860936    -0.71500
Cu1443     Cu  0.76486211  0.01366392  0.50291301     1.04600
Cu1444     Cu  0.73260184  0.47837659  0.49628295     1.04300
C1445       C  0.70995340  0.02780678  0.04159292     0.94800
C1446       C  0.79137509  0.46828257  0.46552566     0.93900
C1447       C  0.72377597  0.03194750  0.45508880     0.86100
C1448       C  0.76602238  0.45498492  0.04141032     0.92300
O1449       O  0.90962860  0.23560149  0.03843480    -0.71400
O1450       O  0.87315343  0.30184966  0.46590079    -0.72400
O1451       O  0.90658636  0.30216433  0.03660671    -0.61000
O1452       O  0.89075399  0.23831673  0.46215781    -0.69400
O1453       O  0.84119717  0.22397436  0.46698248    -0.69000
O1454       O  0.85497877  0.29820298  0.03354073    -0.60200
O1455       O  0.82349464  0.28726309  0.46874084    -0.72700
O1456       O  0.85822291  0.23193292  0.03294866    -0.71500
Cu1457     Cu  0.88678127  0.26994085  0.49503685     1.04600
Cu1458     Cu  0.83373104  0.25439095  0.49939371     1.04300
C1459       C  0.88324590  0.22372965  0.04593226     0.94800
C1460       C  0.84479344  0.30461054  0.45766274     0.93900
C1461       C  0.87942531  0.31138495  0.04407911     0.86100
C1462       C  0.86757093  0.22155947  0.45409616     0.92300
O1463       O  0.69268555  0.38391550  0.21974459    -0.71400
O1464       O  0.76055295  0.41057951  0.27499986    -0.72400
O1465       O  0.75481700  0.40411843  0.21271055    -0.61000
O1466       O  0.69793359  0.38928699  0.28230376    -0.69400
O1467       O  0.71609141  0.34096615  0.28527839    -0.69000
O1468       O  0.77111052  0.35506984  0.21581485    -0.60200
O1469       O  0.77788862  0.36198087  0.27799958    -0.72700
O1470       O  0.70942930  0.33511772  0.22288449    -0.71500
Cu1471     Cu  0.72594400  0.39875283  0.24741192     1.04600
Cu1472     Cu  0.74424339  0.34663832  0.25067475     1.04300
C1473       C  0.69091025  0.35548898  0.21193655     0.94800
C1474       C  0.77959564  0.39053818  0.28556136     0.93900
C1475       C  0.77097468  0.38139613  0.20287329     0.86100
C1476       C  0.69832531  0.36252720  0.29478485     0.92300
C1477       C  0.61045953  0.33243305  0.39237725     0.88000
C1478       C  0.59153259  0.31325798  0.37022519    -0.52200
C1479       C  0.58300370  0.32947122  0.34555294     0.10900
C1480       C  0.59464993  0.36306162  0.34495470     0.21900
C1481       C  0.63840871  0.34466007  0.37445561    -0.52900
C1482       C  0.63005647  0.36050307  0.34941803     0.11000
C1483       C  0.59019032  0.36141673  0.39845972    -0.52500
C1484       C  0.58194427  0.37749192  0.37332667     0.11600
H1485       H  0.58469787  0.28933036  0.37429223     0.16100
H1486       H  0.58796343  0.37588524  0.32456073     0.01900
H1487       H  0.66256199  0.34049925  0.38068166     0.16400
H1488       H  0.58290345  0.36797281  0.42047458     0.16200
C1489       C  0.60796810  0.32949272  0.10987424     0.88000
C1490       C  0.63494052  0.33869136  0.13027468    -0.52200
C1491       C  0.62557557  0.35610287  0.15389728     0.10900
C1492       C  0.59025996  0.36299727  0.15455764     0.21900
C1493       C  0.58453718  0.31304446  0.13028969    -0.52900
C1494       C  0.57546130  0.33047071  0.15389537     0.11000
C1495       C  0.59227660  0.36011082  0.10103905    -0.52500
C1496       C  0.58264649  0.37772558  0.12416780     0.11600
H1497       H  0.65902771  0.33157521  0.12673783     0.16100
H1498       H  0.58299192  0.37667528  0.17403700     0.01900
H1499       H  0.57634806  0.28951243  0.12655222     0.16400
H1500       H  0.58849042  0.36695100  0.07822165     0.16200
C1501       C  0.90677132  0.17079164  0.11171467     0.88000
C1502       C  0.87633028  0.16463901  0.12955311    -0.52200
C1503       C  0.88156399  0.14887149  0.15556228     0.10900
C1504       C  0.91616282  0.14108252  0.16108862     0.21900
C1505       C  0.92797835  0.18784080  0.13322590    -0.52900
C1506       C  0.93276114  0.17260641  0.15915915     0.11000
C1507       C  0.92186893  0.13874171  0.10781589    -0.52500
C1508       C  0.92686473  0.12307286  0.13366246     0.11600
H1509       H  0.85310033  0.17156856  0.12257847     0.16100
H1510       H  0.92043593  0.12858525  0.18221693     0.01900
H1511       H  0.93868508  0.21009943  0.12803766     0.16400
H1512       H  0.92891080  0.13008307  0.08640184     0.16200
C1513       C  0.90222119  0.17299896  0.38931138     0.88000
C1514       C  0.92406526  0.19057742  0.36830939    -0.52200
C1515       C  0.93085326  0.17498389  0.34299466     0.10900
C1516       C  0.91515810  0.14313198  0.34095580     0.21900
C1517       C  0.87316146  0.16552627  0.37024377    -0.52900
C1518       C  0.88021610  0.14976284  0.34490845     0.11000
C1519       C  0.91834773  0.14136750  0.39447541    -0.52500
C1520       C  0.92501687  0.12570172  0.36899317     0.11600
H1521       H  0.93381795  0.21320041  0.37345757     0.16100
H1522       H  0.92074032  0.13061720  0.32021788     0.01900
H1523       H  0.84935047  0.17176469  0.37582284     0.16400
H1524       H  0.92423065  0.13271861  0.41627862     0.16200
O1525       O  0.99759043  0.21422993  0.21952327    -0.71400
O1526       O  0.54445806  0.24733777  0.28355343    -0.72400
O1527       O  0.99745838  0.21439707  0.28133455    -0.61000
O1528       O  0.54268857  0.24882464  0.22080497    -0.69400
O1529       O  0.51495530  0.29250837  0.22168285    -0.69000
O1530       O  0.96907285  0.25771968  0.28130880    -0.60200
O1531       O  0.51729003  0.29141141  0.28396385    -0.72700
O1532       O  0.96895389  0.25739885  0.21882712    -0.71500
Cu1533     Cu  0.51672437  0.22897313  0.25287681     1.04600
Cu1534     Cu  0.99526290  0.27759633  0.24993547     1.04300
C1535       C  0.97444067  0.22987076  0.20970530     0.94800
C1536       C  0.53998606  0.27471094  0.29335365     0.93900
C1537       C  0.97447222  0.23036677  0.29107627     0.86100
C1538       C  0.53718410  0.27621779  0.21099631     0.92300
O1539       O  0.74993260  0.09146169  0.28078709    -0.71400
O1540       O  0.81154648  0.11923357  0.21895440    -0.72400
O1541       O  0.81093914  0.11824388  0.28194037    -0.61000
O1542       O  0.75044346  0.09311368  0.21872301    -0.69400
O1543       O  0.72953724  0.14041123  0.21915545    -0.69000
O1544       O  0.78982565  0.16541268  0.28240998    -0.60200
O1545       O  0.79068253  0.16646493  0.21894565    -0.72700
O1546       O  0.72909489  0.13874164  0.28171934    -0.71500
Cu1547     Cu  0.78150227  0.10391468  0.25009475     1.04600
Cu1548     Cu  0.75913023  0.15444963  0.25058058     1.04300
C1549       C  0.72968012  0.11052483  0.29081675     0.94800
C1550       C  0.81065653  0.14702812  0.20883132     0.93900
C1551       C  0.80968945  0.14580907  0.29235227     0.86100
C1552       C  0.73030031  0.11270193  0.20923105     0.92300
C1553       C  0.95389413  0.21773520  0.31407653    -0.14900
C1554       C  0.95175123  0.18717069  0.31971648    -0.30100
H1555       H  0.93917107  0.23406366  0.32591381     0.14100
H1556       H  0.96442784  0.17061093  0.30618583     0.14700
C1557       C  0.85713727  0.13934280  0.32268846    -0.14900
C1558       C  0.83111871  0.15546703  0.31613698    -0.30100
H1559       H  0.86316603  0.11902270  0.30972999     0.14100
H1560       H  0.82618841  0.17712920  0.32744825     0.14700
C1561       C  0.95210521  0.18552944  0.18304165    -0.14900
C1562       C  0.95396454  0.21637705  0.18733923    -0.30100
H1563       H  0.96434417  0.16948380  0.19758141     0.14100
H1564       H  0.93955048  0.23225687  0.17451697     0.14700
C1565       C  0.85720900  0.13904289  0.17713066    -0.14900
C1566       C  0.83272483  0.15686747  0.18516469    -0.30100
H1567       H  0.86148364  0.11737784  0.18885948     0.14100
H1568       H  0.82951910  0.17957273  0.17501796     0.14700
C1569       C  0.55532854  0.31851642  0.17798997    -0.14900
C1570       C  0.55654283  0.28859404  0.18676487    -0.30100
H1571       H  0.54085857  0.33504394  0.18985916     0.14100
H1572       H  0.57277589  0.27265847  0.17625681     0.14700
C1573       C  0.56117365  0.28667976  0.31600214    -0.14900
C1574       C  0.56276276  0.31707813  0.32209555    -0.30100
H1575       H  0.57623033  0.27017689  0.32737349     0.14100
H1576       H  0.54935420  0.33366933  0.30908441     0.14700
C1577       C  0.64676769  0.36560552  0.17796928    -0.14900
C1578       C  0.66837129  0.34603739  0.18908713    -0.30100
H1579       H  0.64343285  0.38843689  0.18755458     0.14100
H1580       H  0.67006479  0.32250539  0.18066061     0.14700
C1581       C  0.67831455  0.35548833  0.32035136    -0.14900
C1582       C  0.65239213  0.37169029  0.32676939    -0.30100
H1583       H  0.68361629  0.33439717  0.33265098     0.14100
H1584       H  0.64546377  0.39112858  0.31284006     0.14700
C1585       C  0.88071505  0.20142958  0.07065819    -0.14900
C1586       C  0.90607933  0.18875854  0.08299441    -0.30100
H1587       H  0.85765152  0.19682758  0.07954259     0.14100
H1588       H  0.92872930  0.19317001  0.07287518     0.14700
C1589       C  0.87021382  0.19992355  0.42900492    -0.14900
C1590       C  0.89787663  0.19140617  0.41755048    -0.30100
H1591       H  0.84855806  0.19138450  0.41980088     0.14100
H1592       H  0.91912007  0.19896624  0.42851364     0.14700
C1593       C  0.69101462  0.11894684  0.33056327    -0.14900
C1594       C  0.70712142  0.09938179  0.31320574    -0.30100
H1595       H  0.69399303  0.14382846  0.32751731     0.14100
H1596       H  0.70528597  0.07449137  0.31691472     0.14700
C1597       C  0.68212971  0.05330439  0.42315157    -0.14900
C1598       C  0.71213233  0.05309406  0.43192902    -0.30100
H1599       H  0.66523521  0.03829056  0.43400328     0.14100
H1600       H  0.72832441  0.07017166  0.42306821     0.14700
C1601       C  0.68974297  0.12280846  0.17146233    -0.14900
C1602       C  0.70818470  0.10281705  0.18638093    -0.30100
H1603       H  0.68958180  0.14734325  0.17700799     0.14100
H1604       H  0.70856549  0.07846052  0.18012129     0.14700
C1605       C  0.69667693  0.07083227  0.07463880    -0.14900
C1606       C  0.68813064  0.04454162  0.06127803    -0.30100
H1607       H  0.72002107  0.07995081  0.07092725     0.14100
H1608       H  0.66536959  0.03447082  0.06583924     0.14700
C1609       C  0.81588960  0.39787414  0.17326933    -0.14900
C1610       C  0.78775858  0.38452551  0.17507495    -0.30100
H1611       H  0.82681860  0.40725410  0.19291430     0.14100
H1612       H  0.77710812  0.37447632  0.15560416     0.14700
C1613       C  0.81211268  0.43681627  0.06904376    -0.14900
C1614       C  0.78098179  0.43557574  0.06426524    -0.30100
H1615       H  0.82709807  0.44984470  0.05412108     0.14100
H1616       H  0.76631975  0.42044741  0.07759908     0.14700
C1617       C  0.85361912  0.34318341  0.08261604    -0.14900
C1618       C  0.87731538  0.33860277  0.06387564    -0.30100
H1619       H  0.83552429  0.32560000  0.08461496     0.14100
H1620       H  0.89674493  0.35482782  0.06382988     0.14700
C1621       C  0.81558826  0.38028063  0.32679892    -0.14900
C1622       C  0.80231181  0.40063215  0.30801254    -0.30100
H1623       H  0.81244087  0.35552444  0.32325001     0.14100
H1624       H  0.80450593  0.42539271  0.31212034     0.14700
C1625       C  0.80074503  0.43656321  0.42186194    -0.14900
C1626       C  0.81238749  0.45287832  0.44440479    -0.30100
H1627       H  0.77553618  0.43564629  0.41875727     0.14100
H1628       H  0.83743354  0.45618295  0.44667239     0.14700
C1629       C  0.85692291  0.35013015  0.42672879    -0.14900
C1630       C  0.83689580  0.32743468  0.43449954    -0.30100
H1631       H  0.87824160  0.35372376  0.43921637     0.14100
H1632       H  0.81444260  0.32551028  0.42348908     0.14700
C1633       C  0.65077228  0.17121742  0.43150329    -0.14900
C1634       C  0.63352273  0.14639793  0.42378871    -0.30100
H1635       H  0.67301367  0.17553631  0.42068554     0.14100
H1636       H  0.61256750  0.14058904  0.43615242     0.14700
C1637       C  0.63646438  0.17593064  0.07449708    -0.14900
C1638       C  0.62451395  0.14782011  0.08075396    -0.30100
H1639       H  0.65737190  0.18354986  0.08593301     0.14100
H1640       H  0.60578534  0.13854738  0.06727426     0.14700
C1641       C  0.59520484  0.30028831  0.06488900    -0.14900
C1642       C  0.61722578  0.31009103  0.08370788    -0.30100
H1643       H  0.57092599  0.30672830  0.06870460     0.14100
H1644       H  0.64143947  0.30292437  0.08096713     0.14700
C1645       C  0.59952919  0.29666639  0.43506541    -0.14900
C1646       C  0.62013126  0.31368645  0.41936498    -0.30100
H1647       H  0.57489017  0.29771128  0.42936805     0.14100
H1648       H  0.64487459  0.31186622  0.42447585     0.14700
C1649       C  0.55547259  0.42625721  0.13988402    -0.14900
C1650       C  0.56512707  0.40699757  0.11860852    -0.30100
H1651       H  0.56109290  0.42158948  0.16275390     0.14100
H1652       H  0.55950889  0.41260904  0.09583067     0.14700
C1653       C  0.60240501  0.05720926  0.13145895    -0.14900
C1654       C  0.58469136  0.04719552  0.10898296    -0.30100
H1655       H  0.59553444  0.05119293  0.15385356     0.14100
H1656       H  0.59125827  0.05227525  0.08640910     0.14700
C1657       C  0.94311029  0.09267832  0.13627206    -0.14900
C1658       C  0.95048170  0.07438682  0.11322915    -0.30100
H1659       H  0.94983991  0.08552226  0.15836446     0.14100
H1660       H  0.94343769  0.08056898  0.09102315     0.14700
C1661       C  0.90852967  0.43647115  0.11324298    -0.14900
C1662       C  0.92368512  0.45240896  0.13461759    -0.30100
H1663       H  0.91778203  0.43690808  0.09096483     0.14100
H1664       H  0.91478414  0.45249595  0.15693655     0.14700
C1665       C  0.59288971  0.06447597  0.36672479    -0.14900
C1666       C  0.57680391  0.05082899  0.38882438    -0.30100
H1667       H  0.58416733  0.06244732  0.34433536     0.14100
H1668       H  0.58538638  0.05186151  0.41122956     0.14700
C1669       C  0.56194998  0.40572960  0.37160728    -0.14900
C1670       C  0.55327138  0.42251901  0.39500527    -0.30100
H1671       H  0.55485951  0.41343109  0.34976223     0.14100
H1672       H  0.56081683  0.41578109  0.41695867     0.14700
C1673       C  0.91972568  0.44865133  0.36146307    -0.14900
C1674       C  0.90278464  0.43591944  0.38349681    -0.30100
H1675       H  0.91212925  0.44636462  0.33881163     0.14100
H1676       H  0.91053610  0.43909254  0.40605799     0.14700
C1677       C  0.94881549  0.07669002  0.38944188    -0.14900
C1678       C  0.94109776  0.09525481  0.36663568    -0.30100
H1679       H  0.94310044  0.08315346  0.41187484     0.14100
H1680       H  0.94681544  0.08785258  0.34442849     0.14700
O1681       O  0.52335681  0.45239181  0.87788416    -0.71400
O1682       O  0.97002972  0.03658953  0.89888889    -0.72400
O1683       O  0.95555164  0.46883230  0.88605336    -0.61000
O1684       O  0.54133897  0.02581505  0.89171553    -0.69400
O1685       O  0.53729227  0.03154231  0.84323869    -0.69000
O1686       O  0.95034330  0.47741143  0.83797051    -0.60200
O1687       O  0.96464136  0.04544459  0.85092747    -0.72700
O1688       O  0.51983299  0.45706344  0.82927002    -0.71500
Cu1689     Cu  0.50204978  0.99841303  0.89274292     1.04600
Cu1690     Cu  0.99023663  0.50053882  0.83554439     1.04300
C1691       C  0.52959026  0.44238166  0.85216036     0.94800
C1692       C  0.95967630  0.05329088  0.87780175     0.93900
C1693       C  0.94053224  0.46532156  0.86188413     0.86100
C1694       C  0.55155508  0.03705423  0.86727094     0.92300
O1695       O  0.96231757  0.46424108  0.61322997    -0.71400
O1696       O  0.53373924  0.02264383  0.58787687    -0.72400
O1697       O  0.52820932  0.45524540  0.60559294    -0.61000
O1698       O  0.96307166  0.03778130  0.60800115    -0.69400
O1699       O  0.97401245  0.04059922  0.65570996    -0.69000
O1700       O  0.53130137  0.46636371  0.65320389    -0.60200
O1701       O  0.53692779  0.03252791  0.63572185    -0.72700
O1702       O  0.96497609  0.47389923  0.66113521    -0.71500
Cu1703     Cu  0.00017466  0.48981333  0.60404730     1.04600
Cu1704     Cu  0.99812060  0.00150661  0.65545819     1.04300
C1705       C  0.95140884  0.46099163  0.63930621     0.94800
C1706       C  0.54799612  0.03498343  0.60955817     0.93900
C1707       C  0.53804380  0.44872131  0.63159380     0.86100
C1708       C  0.96057121  0.05159620  0.63297848     0.92300
O1709       O  0.62538500  0.26667780  0.96810771    -0.71400
O1710       O  0.66268940  0.20942881  0.52807058    -0.72400
O1711       O  0.64211651  0.20288781  0.97472803    -0.61000
O1712       O  0.63824994  0.27048728  0.53034263    -0.69400
O1713       O  0.59006607  0.25140857  0.52983697    -0.69000
O1714       O  0.59230594  0.18933220  0.97962678    -0.60200
O1715       O  0.61469406  0.18991543  0.52810534    -0.72700
O1716       O  0.57551338  0.25330516  0.97201302    -0.71500
Cu1717     Cu  0.63746100  0.23927972  0.00226008     1.04600
Cu1718     Cu  0.58425528  0.22431205  0.00689255     1.04300
C1719       C  0.59719190  0.26881274  0.95910772     0.94800
C1720       C  0.64273861  0.18986352  0.53784063     0.93900
C1721       C  0.61934060  0.18463068  0.96885230     0.86100
C1722       C  0.61033123  0.26999820  0.54041185     0.92300
C1723       C  0.82682584  0.38560241  0.86064023     0.88000
C1724       C  0.83567527  0.35674617  0.87849010    -0.52200
C1725       C  0.85187118  0.36286071  0.90350412     0.10900
C1726       C  0.85768066  0.39768075  0.90878549     0.21900
C1727       C  0.80881350  0.40622731  0.88239948    -0.52900
C1728       C  0.82512365  0.41284720  0.90763185     0.11000
C1729       C  0.85772640  0.40271583  0.85521965    -0.52500
C1730       C  0.87373526  0.40939791  0.88066314     0.11600
H1731       H  0.82886816  0.33331999  0.87237243     0.16100
H1732       H  0.87065484  0.40275205  0.92941418     0.01900
H1733       H  0.78574707  0.41549877  0.87759419     0.16400
H1734       H  0.86574972  0.40896117  0.83329325     0.16200
C1735       C  0.83110114  0.38651336  0.64229463     0.88000
C1736       C  0.81194393  0.40732533  0.62145139    -0.52200
C1737       C  0.82762569  0.41595805  0.59659233     0.10900
C1738       C  0.86081296  0.40260839  0.59453655     0.21900
C1739       C  0.84107100  0.35887058  0.62302399    -0.52900
C1740       C  0.85642151  0.36741565  0.59777669     0.11000
C1741       C  0.86151286  0.40461165  0.64820748    -0.52500
C1742       C  0.87715743  0.41295774  0.62296702     0.11600
H1743       H  0.78829644  0.41501231  0.62627930     0.16100
H1744       H  0.87320371  0.40945520  0.57396270     0.01900
H1745       H  0.83563536  0.33485641  0.62840301     0.16400
H1746       H  0.86960003  0.41005264  0.67023466     0.16200
C1747       C  0.67071809  0.10770044  0.64013352     0.88000
C1748       C  0.69121047  0.08646520  0.62140839    -0.52200
C1749       C  0.67695665  0.07530728  0.59692135     0.10900
C1750       C  0.64279858  0.08667631  0.59321044     0.21900
C1751       C  0.66013735  0.13337923  0.61879821    -0.52900
C1752       C  0.64579001  0.12242656  0.59394438     0.11000
C1753       C  0.64123057  0.08901232  0.64691003    -0.52500
C1754       C  0.62614887  0.07808604  0.62258522     0.11600
H1755       H  0.71555415  0.08160243  0.62655007     0.16100
H1756       H  0.63136915  0.07811080  0.57291445     0.01900
H1757       H  0.66411830  0.15792202  0.62277451     0.16400
H1758       H  0.63269265  0.08523920  0.66921739     0.16200
C1759       C  0.67122567  0.11014140  0.86346015     0.88000
C1760       C  0.66560305  0.13844923  0.88277547    -0.52200
C1761       C  0.65120529  0.13196650  0.90866009     0.10900
C1762       C  0.64309338  0.09724843  0.91293076     0.21900
C1763       C  0.68957619  0.08741083  0.88329343    -0.52900
C1764       C  0.67454850  0.08046390  0.90914380     0.11000
C1765       C  0.63892663  0.09514511  0.85945715    -0.52500
C1766       C  0.62417278  0.08780794  0.88554108     0.11600
H1767       H  0.67336307  0.16175252  0.87697142     0.16100
H1768       H  0.63141876  0.09176633  0.93420248     0.01900
H1769       H  0.71194579  0.07732979  0.87718137     0.16400
H1770       H  0.62947385  0.09035007  0.83781671     0.16200
O1771       O  0.73392468  0.03281458  0.53089660    -0.71400
O1772       O  0.78419115  0.47994183  0.97087000    -0.72400
O1773       O  0.75205368  0.04328016  0.97677518    -0.61000
O1774       O  0.78594390  0.48501187  0.54007400    -0.69400
O1775       O  0.74817739  0.45149198  0.52955604    -0.69000
O1776       O  0.71352318  0.01010670  0.96793485    -0.60200
O1777       O  0.74197194  0.45018185  0.96797702    -0.72700
O1778       O  0.69662177  0.99885941  0.52044491    -0.71500
Cu1779     Cu  0.76861308  0.01711299  0.00994495     1.04600
Cu1780     Cu  0.71880408  0.47372221  0.99833667     1.04300
C1781       C  0.70606675  0.02264057  0.53451649     0.94800
C1782       C  0.76952067  0.45690909  0.95959861     0.93900
C1783       C  0.72786646  0.03549286  0.96217058     0.86100
C1784       C  0.77204640  0.45921930  0.54470875     0.92300
O1785       O  0.89779151  0.23741938  0.52439240    -0.71400
O1786       O  0.91215837  0.30252529  0.97496744    -0.72400
O1787       O  0.87855713  0.30019603  0.52841758    -0.61000
O1788       O  0.91804146  0.23633406  0.97572010    -0.69400
O1789       O  0.86679660  0.23169982  0.96996460    -0.69000
O1790       O  0.82897397  0.28540143  0.53160264    -0.60200
O1791       O  0.86071543  0.29723914  0.97154545    -0.72700
O1792       O  0.84826232  0.22302929  0.52977515    -0.71500
Cu1793     Cu  0.91342070  0.26904544  0.00668015     1.04600
Cu1794     Cu  0.85841043  0.26447581  0.00186425     1.04300
C1795       C  0.87712806  0.22075478  0.53697134     0.94800
C1796       C  0.88595020  0.31058542  0.96366183     0.93900
C1797       C  0.85161888  0.30200113  0.54066556     0.86100
C1798       C  0.89479627  0.22430986  0.96245378     0.92300
O1799       O  0.69374569  0.38249156  0.71871001    -0.71400
O1800       O  0.75441772  0.40856745  0.78141274    -0.72400
O1801       O  0.75526044  0.40815067  0.71893273    -0.61000
O1802       O  0.69348360  0.38201968  0.78178464    -0.69400
O1803       O  0.71442494  0.33477482  0.78186783    -0.69000
O1804       O  0.77550224  0.36059504  0.71927228    -0.60200
O1805       O  0.77482795  0.36107539  0.78192123    -0.72700
O1806       O  0.71449745  0.33515382  0.71874152    -0.71500
Cu1807     Cu  0.72346698  0.39696088  0.75016646     1.04600
Cu1808     Cu  0.74548679  0.34625070  0.75043706     1.04300
C1809       C  0.69475101  0.35483638  0.70860629     0.94800
C1810       C  0.77395177  0.38889715  0.79174336     0.93900
C1811       C  0.77513637  0.38839989  0.70928460     0.86100
C1812       C  0.69465305  0.35424109  0.79203111     0.92300
C1813       C  0.60391030  0.32183450  0.88910578     0.88000
C1814       C  0.58329271  0.30461164  0.86689314    -0.52200
C1815       C  0.57611157  0.32185471  0.84240552     0.10900
C1816       C  0.59028655  0.35445078  0.84219485     0.21900
C1817       C  0.63273451  0.33197321  0.87099708    -0.52900
C1818       C  0.62543606  0.34902015  0.84632526     0.11000
C1819       C  0.58620860  0.35226749  0.89560148    -0.52500
C1820       C  0.57877168  0.36932190  0.87096941     0.11600
H1821       H  0.57460517  0.28122917  0.87065673     0.16100
H1822       H  0.58497500  0.36759969  0.82175196     0.01900
H1823       H  0.65657514  0.32601635  0.87701052     0.16400
H1824       H  0.57960642  0.35932678  0.91770580     0.16200
C1825       C  0.61085683  0.32379631  0.60834974     0.88000
C1826       C  0.63750054  0.33462440  0.62838760    -0.52200
C1827       C  0.62770807  0.35194089  0.65188300     0.10900
C1828       C  0.59209083  0.35746106  0.65257060     0.21900
C1829       C  0.58821184  0.30683103  0.62913226    -0.52900
C1830       C  0.57829303  0.32441570  0.65235914     0.11000
C1831       C  0.59373442  0.35360609  0.59906171    -0.52500
C1832       C  0.58373881  0.37147391  0.62200459     0.11600
H1833       H  0.66181504  0.32855025  0.62462162     0.16100
H1834       H  0.58432421  0.37115604  0.67186639     0.01900
H1835       H  0.58056361  0.28313831  0.62542090     0.16400
H1836       H  0.58958602  0.35985348  0.57614604     0.16200
C1837       C  0.88034215  0.17129915  0.60769373     0.88000
C1838       C  0.85488337  0.16188588  0.62962954    -0.52200
C1839       C  0.86583192  0.14535484  0.65324931     0.10900
C1840       C  0.90131470  0.13917421  0.65225863     0.21900
C1841       C  0.90458592  0.18877575  0.62641533    -0.52900
C1842       C  0.91545342  0.17199594  0.65001487     0.11000
C1843       C  0.89620781  0.14078933  0.59880841    -0.52500
C1844       C  0.90763466  0.12387402  0.62185345     0.11600
H1845       H  0.83044705  0.16818412  0.62691777     0.16100
H1846       H  0.90964041  0.12592567  0.67175099     0.01900
H1847       H  0.91204052  0.21235783  0.62153683     0.16400
H1848       H  0.89864144  0.13344920  0.57602829     0.16200
C1849       C  0.88857137  0.17552046  0.89030453     0.88000
C1850       C  0.90951242  0.19473150  0.86929640    -0.52200
C1851       C  0.91666413  0.17959987  0.84369785     0.10900
C1852       C  0.90203173  0.14746856  0.84116614     0.21900
C1853       C  0.85979661  0.16724065  0.87156951    -0.52900
C1854       C  0.86709955  0.15242493  0.84589499     0.11000
C1855       C  0.90621739  0.14422471  0.89449422    -0.52500
C1856       C  0.91323479  0.12974017  0.86831371     0.11600
H1857       H  0.91858791  0.21758136  0.87461953     0.16100
H1858       H  0.90759957  0.13577738  0.81997906     0.01900
H1859       H  0.83591671  0.17211258  0.87826416     0.16400
H1860       H  0.91257075  0.13491491  0.91593722     0.16200
O1861       O  0.98084471  0.20892513  0.71426585    -0.71400
O1862       O  0.53540423  0.24333392  0.77791866    -0.72400
O1863       O  0.98074267  0.21152596  0.77706824    -0.61000
O1864       O  0.53528687  0.24371010  0.71536143    -0.69400
O1865       O  0.51040367  0.28906210  0.71519414    -0.69000
O1866       O  0.95606240  0.25695164  0.77550909    -0.60200
O1867       O  0.51101688  0.28899175  0.77753225    -0.72700
O1868       O  0.95625436  0.25435999  0.71241606    -0.71500
Cu1869     Cu  0.50724047  0.22634438  0.74706815     1.04600
Cu1870     Cu  0.98436902  0.27283065  0.74362274     1.04300
C1871       C  0.95945910  0.22636509  0.70347334     0.94800
C1872       C  0.53229583  0.27091310  0.78759849     0.93900
C1873       C  0.95952532  0.22990738  0.78668837     0.86100
C1874       C  0.53211356  0.27141582  0.70547753     0.92300
O1875       O  0.73980369  0.08909791  0.78243620    -0.71400
O1876       O  0.80165154  0.11687141  0.72176221    -0.72400
O1877       O  0.79937532  0.11752504  0.78429047    -0.61000
O1878       O  0.74144736  0.08961101  0.72035445    -0.69400
O1879       O  0.72002997  0.13670906  0.71927938    -0.69000
O1880       O  0.77713417  0.16423019  0.78353990    -0.60200
O1881       O  0.78000817  0.16383020  0.72071196    -0.72700
O1882       O  0.71797096  0.13600213  0.78191975    -0.71500
Cu1883     Cu  0.77135667  0.10165749  0.75223069     1.04600
Cu1884     Cu  0.74800289  0.15185090  0.75131287     1.04300
C1885       C  0.71950959  0.10822842  0.79209651     0.94800
C1886       C  0.80043234  0.14447978  0.71137339     0.93900
C1887       C  0.79711830  0.14524871  0.79417934     0.86100
C1888       C  0.72171270  0.10892581  0.70968048     0.92300
C1889       C  0.93888682  0.22024876  0.81112860    -0.14900
C1890       C  0.93839258  0.19079700  0.82074083    -0.30100
H1891       H  0.92318343  0.23731687  0.82073169     0.14100
H1892       H  0.95256410  0.17337724  0.80971142     0.14700
C1893       C  0.84432673  0.14081351  0.82426171    -0.14900
C1894       C  0.81771381  0.15583159  0.81801040    -0.30100
H1895       H  0.85117089  0.12079563  0.81124469     0.14100
H1896       H  0.81194022  0.17731453  0.82926645     0.14700
C1897       C  0.93739139  0.18423710  0.67259124    -0.14900
C1898       C  0.93831888  0.21447484  0.68026354    -0.30100
H1899       H  0.95167575  0.16746323  0.68448608     0.14100
H1900       H  0.92252989  0.23096866  0.66980303     0.14700
C1901       C  0.84583889  0.13607033  0.67846255    -0.14900
C1902       C  0.82196498  0.15406005  0.68766732    -0.30100
H1903       H  0.85154146  0.11471062  0.69011534     0.14100
H1904       H  0.81775331  0.17644405  0.67723494     0.14700
C1905       C  0.55646753  0.31305307  0.67547172    -0.14900
C1906       C  0.55380383  0.28272436  0.68253731    -0.30100
H1907       H  0.54320849  0.33028203  0.68768593     0.14100
H1908       H  0.56868398  0.26562565  0.67194314     0.14700
C1909       C  0.55330314  0.28132712  0.81103883    -0.14900
C1910       C  0.55555267  0.31129935  0.81844449    -0.30100
H1911       H  0.56762111  0.26394039  0.82208009     0.14100
H1912       H  0.54291820  0.32888676  0.80593399     0.14700
C1913       C  0.64884187  0.36244711  0.67580310    -0.14900
C1914       C  0.67353963  0.34527603  0.68463722    -0.30100
H1915       H  0.64279064  0.38359735  0.68747077     0.14100
H1916       H  0.67808985  0.32296836  0.67437546     0.14700
C1917       C  0.67345605  0.34405244  0.81600035    -0.14900
C1918       C  0.64833345  0.36064366  0.82427427    -0.30100
H1919       H  0.67788663  0.32156069  0.82619771     0.14100
H1920       H  0.64257488  0.38197178  0.81254065     0.14700
C1921       C  0.88741130  0.19974958  0.56063298    -0.14900
C1922       C  0.86806148  0.18969775  0.58182237    -0.30100
H1923       H  0.91227196  0.19464716  0.56230441     0.14100
H1924       H  0.84332598  0.19552220  0.58084382     0.14700
C1925       C  0.90159809  0.20288591  0.93757876    -0.14900
C1926       C  0.87988141  0.19256622  0.91858590    -0.30100
H1927       H  0.92598871  0.19753186  0.93318373     0.14100
H1928       H  0.85547181  0.19811604  0.92259560     0.14700
C1929       C  0.68760077  0.11916166  0.83529531    -0.14900
C1930       C  0.69884972  0.09828771  0.81626136    -0.30100
H1931       H  0.69224397  0.14369230  0.83135256     0.14100
H1932       H  0.69589673  0.07360913  0.82059893     0.14700
C1933       C  0.68635860  0.05811725  0.93137504    -0.14900
C1934       C  0.71670395  0.05630954  0.93854200    -0.30100
H1935       H  0.66931366  0.04457226  0.94367350     0.14100
H1936       H  0.73337223  0.07206514  0.92832849     0.14700
C1937       C  0.68749130  0.11912318  0.66713788    -0.14900
C1938       C  0.70120224  0.09884195  0.68572362    -0.30100
H1939       H  0.69021767  0.14398581  0.67037323     0.14100
H1940       H  0.69937763  0.07403930  0.68163141     0.14700
C1941       C  0.69598329  0.05838970  0.57501436    -0.14900
C1942       C  0.68461334  0.03852760  0.55513091    -0.30100
H1943       H  0.72112746  0.06173996  0.57622854     0.14100
H1944       H  0.65984463  0.03318299  0.55461839     0.14700
C1945       C  0.81294570  0.37700755  0.66952875    -0.14900
C1946       C  0.79737131  0.39790016  0.68602767    -0.30100
H1947       H  0.81026068  0.35236158  0.67422005     0.14100
H1948       H  0.79904653  0.42248314  0.68065988     0.14700
C1949       C  0.81460357  0.43701667  0.57394734    -0.14900
C1950       C  0.78398593  0.43794356  0.56746327    -0.30100
H1951       H  0.83094216  0.45120586  0.56144539     0.14100
H1952       H  0.76785138  0.42173143  0.57775599     0.14700
C1953       C  0.86518095  0.34559357  0.57394934    -0.14900
C1954       C  0.84578352  0.32270803  0.56588999    -0.30100
H1955       H  0.88599644  0.35042732  0.56101816     0.14100
H1956       H  0.82373205  0.31982186  0.57749657     0.14700
C1957       C  0.80880915  0.37719843  0.83321318    -0.14900
C1958       C  0.79491608  0.39841912  0.81584920    -0.30100
H1959       H  0.80551442  0.35268450  0.82842832     0.14100
H1960       H  0.79691105  0.42297153  0.82100318     0.14700
C1961       C  0.81354760  0.43385715  0.93118840    -0.14900
C1962       C  0.78288778  0.43759245  0.93606119    -0.30100
H1963       H  0.83040541  0.44509431  0.94547908     0.14100
H1964       H  0.76627818  0.42413231  0.92334896     0.14700
C1965       C  0.85816049  0.33775601  0.92473575    -0.14900
C1966       C  0.88384718  0.33577824  0.94160024    -0.30100
H1967       H  0.84076890  0.31936972  0.92578748     0.14100
H1968       H  0.90265018  0.35254968  0.93937534     0.14700
C1969       C  0.62372781  0.15781895  0.94936922    -0.14900
C1970       C  0.64783471  0.15656814  0.93082757    -0.30100
H1971       H  0.60573096  0.14003465  0.94874260     0.14100
H1972       H  0.66438336  0.17573951  0.93005462     0.14700
C1973       C  0.65246043  0.16797599  0.56128104    -0.14900
C1974       C  0.63565033  0.14289546  0.56928126    -0.30100
H1975       H  0.67447684  0.17268164  0.57228835     0.14100
H1976       H  0.61494962  0.13651718  0.55690712     0.14700
C1977       C  0.60086765  0.29078837  0.56451755    -0.14900
C1978       C  0.62157751  0.30421403  0.58267874    -0.30100
H1979       H  0.57601308  0.29389068  0.56849841     0.14100
H1980       H  0.64643883  0.30024718  0.57949803     0.14700
C1981       C  0.58950741  0.28919511  0.93350743    -0.14900
C1982       C  0.61170636  0.30249275  0.91635002    -0.30100
H1983       H  0.56502000  0.29257394  0.92797105     0.14100
H1984       H  0.63620268  0.29849466  0.92147980     0.14700
C1985       C  0.55713308  0.42060539  0.63753821    -0.14900
C1986       C  0.56551765  0.40051186  0.61637511    -0.30100
H1987       H  0.56420184  0.41658684  0.66018401     0.14100
H1988       H  0.55865111  0.40541472  0.59373917     0.14700
C1989       C  0.59619495  0.06090854  0.62623576    -0.14900
C1990       C  0.57767582  0.05180469  0.60401244    -0.30100
H1991       H  0.58880356  0.05596001  0.64872510     0.14100
H1992       H  0.58444265  0.05608889  0.58130599     0.14700
C1993       C  0.92486820  0.09422881  0.61649157    -0.14900
C1994       C  0.94248883  0.08057079  0.63720879    -0.30100
H1995       H  0.92387275  0.08404010  0.59463171     0.14100
H1996       H  0.94422979  0.09103016  0.65883042     0.14700
C1997       C  0.90692687  0.43056298  0.62114011    -0.14900
C1998       C  0.92261602  0.44255430  0.64412571    -0.30100
H1999       H  0.91602537  0.43428168  0.59904705     0.14100
H2000       H  0.91403369  0.43963192  0.66646991     0.14700
C2001       C  0.59440230  0.06975507  0.88834624    -0.14900
C2002       C  0.58024933  0.05617867  0.86529202    -0.30100
H2003       H  0.58462950  0.06661194  0.91024436     0.14100
H2004       H  0.58967249  0.05923140  0.84331674     0.14700
C2005       C  0.56024375  0.39857220  0.87270296    -0.14900
C2006       C  0.54829004  0.41364247  0.84901005    -0.30100
H2007       H  0.55576765  0.40766690  0.89460845     0.14100
H2008       H  0.55182564  0.40501535  0.82689756     0.14700
C2009       C  0.91169708  0.44703627  0.86057942    -0.14900
C2010       C  0.90283767  0.42778061  0.88226888    -0.30100
H2011       H  0.89785435  0.44914989  0.84064744     0.14100
H2012       H  0.91651248  0.42636707  0.90239820     0.14700
C2013       C  0.94205229  0.08190548  0.88505414    -0.14900
C2014       C  0.93048609  0.10018288  0.86375836    -0.30100
H2015       H  0.93887647  0.08794619  0.90805576     0.14100
H2016       H  0.93404724  0.09332319  0.84098220     0.14700
O2017       O  0.52290450  0.95594043  0.39428302    -0.71400
O2018       O  0.97381992  0.53327529  0.40568949    -0.72400
O2019       O  0.95766380  0.96630592  0.39447921    -0.61000
O2020       O  0.54405678  0.53043553  0.40357927    -0.69400
O2021       O  0.53656246  0.52369392  0.35563822    -0.69000
O2022       O  0.95825614  0.97631273  0.34647281    -0.60200
O2023       O  0.97634465  0.54305488  0.35770132    -0.72700
O2024       O  0.52330515  0.96651944  0.34636149    -0.71500
Cu2025     Cu  0.50492169  0.50622480  0.41462839     1.04600
Cu2026     Cu  0.99821645  0.00116989  0.34929280     1.04300
C2027       C  0.53173839  0.94943642  0.36805100     0.94800
C2028       C  0.96757188  0.55079284  0.38357144     0.93900
C2029       C  0.94536063  0.96356708  0.36891628     0.86100
C2030       C  0.55268982  0.53457880  0.37671483     0.92300
O2031       O  0.96742184  0.96499332  0.10593293    -0.71400
O2032       O  0.54042054  0.52385694  0.09227474    -0.72400
O2033       O  0.52828124  0.95465646  0.10289763    -0.61000
O2034       O  0.97578352  0.53831167  0.09102459    -0.69400
O2035       O  0.97817827  0.54843140  0.13882940    -0.69000
O2036       O  0.52768691  0.96314662  0.15115482    -0.60200
O2037       O  0.54244623  0.53450918  0.14000092    -0.72700
O2038       O  0.96858979  0.97444856  0.15396706    -0.71500
Cu2039     Cu  0.00506482  0.99198799  0.09894856     1.04600
Cu2040     Cu  0.00451723  0.51091511  0.14729299     1.04300
C2041       C  0.95594588  0.96133427  0.13170002     0.94800
C2042       C  0.55411116  0.53674411  0.11401260     0.93900
C2043       C  0.53631964  0.94701758  0.12912655     0.86100
C2044       C  0.96849293  0.55545139  0.11301588     0.92300
O2045       O  0.64193356  0.77477734  0.46980922    -0.71400
O2046       O  0.66204552  0.71318154  0.03054533    -0.72400
O2047       O  0.66825996  0.71457846  0.47132299    -0.61000
O2048       O  0.63877797  0.77434807  0.02829214    -0.69400
O2049       O  0.59029810  0.75616520  0.03151663    -0.69000
O2050       O  0.62056807  0.69425133  0.47078164    -0.60200
O2051       O  0.61396667  0.69411328  0.03338239    -0.72700
O2052       O  0.59419482  0.75463399  0.46985853    -0.71500
Cu2053     Cu  0.65604040  0.74536492  0.50201613     1.04600
Cu2054     Cu  0.60501126  0.72367092  0.50142310     1.04300
C2055       C  0.61403396  0.77402016  0.45967099     0.94800
C2056       C  0.64238481  0.69440074  0.04214625     0.93900
C2057       C  0.64868168  0.69504383  0.46125607     0.86100
C2058       C  0.61152011  0.77508422  0.03963761     0.92300
C2059       C  0.83046322  0.88230781  0.35957373     0.88000
C2060       C  0.84023586  0.85581745  0.38037449    -0.52200
C2061       C  0.85129984  0.86575956  0.40696525     0.10900
C2062       C  0.85204562  0.90145775  0.41002265     0.21900
C2063       C  0.80689059  0.90119644  0.37753553    -0.52900
C2064       C  0.81801865  0.91149100  0.40373394     0.11000
C2065       C  0.85957018  0.90307593  0.35673915    -0.52500
C2066       C  0.87113760  0.91319066  0.38326065     0.11600
H2067       H  0.83809658  0.83139796  0.37479103     0.16100
H2068       H  0.86103172  0.90933953  0.43169704     0.01900
H2069       H  0.78304851  0.90557879  0.37034050     0.16400
H2070       H  0.86995011  0.90859374  0.33555716     0.16200
C2071       C  0.83484184  0.89319449  0.14424428     0.88000
C2072       C  0.81578264  0.91412090  0.12348875    -0.52200
C2073       C  0.82900632  0.91816560  0.09635949     0.10900
C2074       C  0.86049356  0.90093983  0.09264341     0.21900
C2075       C  0.83943892  0.86280693  0.12725687    -0.52900
C2076       C  0.85260095  0.86659319  0.10005460     0.11000
C2077       C  0.86720776  0.90801608  0.14551836    -0.52500
C2078       C  0.88090521  0.91254172  0.11855791     0.11600
H2079       H  0.79398810  0.92516300  0.12997439     0.16100
H2080       H  0.87116695  0.90448229  0.07056357     0.01900
H2081       H  0.83169745  0.84036241  0.13553930     0.16400
H2082       H  0.87762956  0.91465330  0.16627876     0.16200
C2083       C  0.67664633  0.61176116  0.14365407     0.88000
C2084       C  0.69729901  0.59145325  0.12412006    -0.52200
C2085       C  0.68285609  0.58031956  0.09973840     0.10900
C2086       C  0.64816941  0.59080336  0.09694451     0.21900
C2087       C  0.66481403  0.63754469  0.12290115    -0.52900
C2088       C  0.65007650  0.62667343  0.09817631     0.11000
C2089       C  0.64773779  0.59213320  0.15066791    -0.52500
C2090       C  0.63226657  0.58126385  0.12649545     0.11600
H2091       H  0.72181378  0.58692654  0.12882313     0.16100
H2092       H  0.63647681  0.58227102  0.07676502     0.01900
H2093       H  0.66809790  0.66210743  0.12726653     0.16400
H2094       H  0.63973733  0.58787479  0.17307298     0.16200
C2095       C  0.67377028  0.60728605  0.36277570     0.88000
C2096       C  0.66577759  0.63487522  0.38279571    -0.52200
C2097       C  0.65211207  0.62636960  0.40875684     0.10900
C2098       C  0.64747918  0.59144403  0.41235022     0.21900
C2099       C  0.69406949  0.58586233  0.38220582    -0.52900
C2100       C  0.67986253  0.57730187  0.40788953     0.11000
C2101       C  0.64244811  0.58970016  0.35896886    -0.52500
C2102       C  0.62873314  0.58163188  0.38540965     0.11600
H2103       H  0.67034650  0.65894957  0.37691873     0.16100
H2104       H  0.63659215  0.58484351  0.43375329     0.01900
H2105       H  0.71709629  0.57754331  0.37589339     0.16400
H2106       H  0.63223073  0.58474730  0.33762925     0.16200
O2107       O  0.73702766  0.53105128  0.03241877    -0.71400
O2108       O  0.79323090  0.99186061  0.47454360    -0.72400
O2109       O  0.75794549  0.54088514  0.47471884    -0.61000
O2110       O  0.78354764  0.98833603  0.04193486    -0.69400
O2111       O  0.74574708  0.95435951  0.03309604    -0.69000
O2112       O  0.71991523  0.50763939  0.46420425    -0.60200
O2113       O  0.75627851  0.95741178  0.46439364    -0.72700
O2114       O  0.69678532  0.49890918  0.02831043    -0.71500
Cu2115     Cu  0.77291018  0.51415902  0.50802772     1.04600
Cu2116     Cu  0.72514161  0.97697723  0.49208123     1.04300
C2117       C  0.70901232  0.52305102  0.03940775     0.94800
C2118       C  0.78418022  0.96756627  0.46103958     0.93900
C2119       C  0.73436516  0.53310875  0.45928721     0.86100
C2120       C  0.77036587  0.96227936  0.04715041     0.92300
O2121       O  0.91305659  0.73954102  0.02396320    -0.71400
O2122       O  0.88073452  0.79552853  0.46984442    -0.72400
O2123       O  0.89984975  0.80480119  0.02209475    -0.61000
O2124       O  0.90085895  0.73257728  0.46763323    -0.69400
O2125       O  0.85242761  0.71480465  0.47234026    -0.69000
O2126       O  0.85031199  0.79468362  0.03290980    -0.60200
O2127       O  0.83207990  0.77781672  0.47172734    -0.72700
O2128       O  0.86339041  0.72968095  0.03449784    -0.71500
Cu2129     Cu  0.89491451  0.76445659  0.49998064     1.04600
Cu2130     Cu  0.84275741  0.74610198  0.50348590     1.04300
C2131       C  0.89248970  0.72535877  0.03941849     0.94800
C2132       C  0.85245294  0.79647486  0.46097701     0.93900
C2133       C  0.87504419  0.81094575  0.03664682     0.86100
C2134       C  0.87903460  0.71400426  0.45974921     0.92300
O2135       O  0.69801027  0.88080398  0.21924973    -0.71400
O2136       O  0.76381040  0.90333319  0.27754715    -0.72400
O2137       O  0.76076282  0.89751283  0.21496925    -0.61000
O2138       O  0.69986673  0.88550369  0.28206366    -0.69400
O2139       O  0.71518774  0.83624292  0.28517450    -0.69000
O2140       O  0.77451580  0.84772138  0.21828776    -0.60200
O2141       O  0.77861142  0.85395155  0.28115147    -0.72700
O2142       O  0.71188192  0.83111946  0.22243981    -0.71500
Cu2143     Cu  0.73017712  0.89355796  0.24849028     1.04600
Cu2144     Cu  0.74558870  0.84055210  0.25203952     1.04300
C2145       C  0.69548756  0.85272587  0.21064392     0.94800
C2146       C  0.78135868  0.88240774  0.28880242     0.93900
C2147       C  0.77573456  0.87396353  0.20521104     0.86100
C2148       C  0.69813121  0.85863090  0.29417867     0.92300
C2149       C  0.61369549  0.83049752  0.39294144     0.88000
C2150       C  0.59354809  0.81294943  0.37042524    -0.52200
C2151       C  0.58406287  0.83086796  0.34704951     0.10900
C2152       C  0.59570109  0.86464374  0.34841869     0.21900
C2153       C  0.64074296  0.84381180  0.37476749    -0.52900
C2154       C  0.63143697  0.86122933  0.35102620     0.11000
C2155       C  0.59414545  0.85882361  0.40186185    -0.52500
C2156       C  0.58442771  0.87684514  0.37872213     0.11600
H2157       H  0.58728835  0.78864251  0.37300484     0.16100
H2158       H  0.58855319  0.87862495  0.32898247     0.01900
H2159       H  0.66510064  0.83866123  0.37949315     0.16400
H2160       H  0.58821103  0.86396204  0.42462066     0.16200
C2161       C  0.61881887  0.83077545  0.10461544     0.88000
C2162       C  0.64646227  0.84138907  0.12353554    -0.52200
C2163       C  0.63756953  0.85937196  0.14687750     0.10900
C2164       C  0.60226867  0.86547770  0.14872663     0.21900
C2165       C  0.59687571  0.81457603  0.12651824    -0.52900
C2166       C  0.58836993  0.83278453  0.14969276     0.11000
C2167       C  0.60189283  0.86060714  0.09531032    -0.52500
C2168       C  0.59265948  0.87862537  0.11830519     0.11600
H2169       H  0.67044777  0.83395015  0.11992217     0.16100
H2170       H  0.59576539  0.87977834  0.16805245     0.01900
H2171       H  0.58894152  0.79078700  0.12388034     0.16400
H2172       H  0.59650429  0.86629200  0.07250047     0.16200
C2173       C  0.89376534  0.67599486  0.11117127     0.88000
C2174       C  0.86710694  0.66765126  0.13260238    -0.52200
C2175       C  0.87696022  0.65297452  0.15776262     0.10900
C2176       C  0.91250051  0.64779783  0.15888017     0.21900
C2177       C  0.91654383  0.69523483  0.12977681    -0.52900
C2178       C  0.92643193  0.68038988  0.15476717     0.11000
C2179       C  0.91089692  0.64502815  0.10529789    -0.52500
C2180       C  0.92087584  0.63023561  0.13044640     0.11600
H2181       H  0.84271250  0.67290439  0.12822108     0.16100
H2182       H  0.92048669  0.63596830  0.17938277     0.01900
H2183       H  0.92439480  0.71829081  0.12340142     0.16400
H2184       H  0.91498121  0.63620242  0.08327344     0.16200
C2185       C  0.90777211  0.67866617  0.38626318     0.88000
C2186       C  0.92867163  0.69514319  0.36374625    -0.52200
C2187       C  0.93354548  0.67882006  0.33858108     0.10900
C2188       C  0.91760198  0.64691777  0.33846070     0.21900
C2189       C  0.87760867  0.67106215  0.36904758    -0.52900
C2190       C  0.88289496  0.65408613  0.34396058     0.11000
C2191       C  0.92368197  0.64701843  0.39186707    -0.52500
C2192       C  0.92881439  0.63031391  0.36665603     0.11600
H2193       H  0.93880288  0.71792223  0.36744295     0.16100
H2194       H  0.92192918  0.63358882  0.31792308     0.01900
H2195       H  0.85447712  0.67807613  0.37630184     0.16400
H2196       H  0.93062173  0.63912839  0.41365562     0.16200
O2197       O  0.99573889  0.71937822  0.21249542    -0.71400
O2198       O  0.55077213  0.75114043  0.27836597    -0.72400
O2199       O  0.99591808  0.71774101  0.27425830    -0.61000
O2200       O  0.55346073  0.75236332  0.21567215    -0.69400
O2201       O  0.52653148  0.79660115  0.21555184    -0.69000
O2202       O  0.96949088  0.76223151  0.27533076    -0.60200
O2203       O  0.52398450  0.79539441  0.27784689    -0.72700
O2204       O  0.96963163  0.76405857  0.21263657    -0.71500
Cu2205     Cu  0.52501904  0.73302734  0.24541194     1.04600
Cu2206     Cu  0.99717735  0.78157579  0.24440675     1.04300
C2207       C  0.97347394  0.73649093  0.20292378     0.94800
C2208       C  0.54573184  0.77834318  0.28857923     0.93900
C2209       C  0.97366844  0.73434679  0.28439132     0.86100
C2210       C  0.54914802  0.77997889  0.20613325     0.92300
O2211       O  0.74916669  0.59117722  0.28489920    -0.71400
O2212       O  0.81013801  0.62031477  0.22314068    -0.72400
O2213       O  0.81003558  0.61899803  0.28587142    -0.61000
O2214       O  0.74943051  0.59322630  0.22264615    -0.69400
O2215       O  0.72806898  0.64031636  0.22285849    -0.69000
O2216       O  0.78766543  0.66556210  0.28704228    -0.60200
O2217       O  0.78846318  0.66722193  0.22381236    -0.72700
O2218       O  0.72711975  0.63791264  0.28565033    -0.71500
Cu2219     Cu  0.78044783  0.60430857  0.25416289     1.04600
Cu2220     Cu  0.75710187  0.65440523  0.25493665     1.04300
C2221       C  0.72838773  0.60974843  0.29481567     0.94800
C2222       C  0.80870204  0.64824243  0.21346871     0.93900
C2223       C  0.80843376  0.64652265  0.29635965     0.86100
C2224       C  0.72944537  0.61272678  0.21265688     0.92300
C2225       C  0.95300831  0.72157680  0.30727119    -0.14900
C2226       C  0.95221878  0.69100467  0.31369469    -0.30100
H2227       H  0.93819010  0.73775892  0.31919265     0.14100
H2228       H  0.96510312  0.67450210  0.30029687     0.14700
C2229       C  0.85847371  0.64271325  0.32334844    -0.14900
C2230       C  0.83079423  0.65693951  0.31919336    -0.30100
H2231       H  0.86466446  0.62311925  0.30947252     0.14100
H2232       H  0.82529642  0.67796981  0.33129478     0.14700
C2233       C  0.94883810  0.69360701  0.17608922    -0.14900
C2234       C  0.95173776  0.72431294  0.18066803    -0.30100
H2235       H  0.96212106  0.67731281  0.18954044     0.14100
H2236       H  0.93678124  0.74071505  0.16904756     0.14700
C2237       C  0.85591541  0.64290898  0.18209890    -0.14900
C2238       C  0.82991021  0.65873039  0.18960943    -0.30100
H2239       H  0.86292525  0.62274372  0.19499711     0.14100
H2240       H  0.82416667  0.68025297  0.17822140     0.14700
C2241       C  0.56873823  0.82175334  0.17418090    -0.14900
C2242       C  0.57009871  0.79212699  0.18339027    -0.30100
H2243       H  0.55367918  0.83844188  0.18518707     0.14100
H2244       H  0.58682663  0.77609456  0.17369611     0.14700
C2245       C  0.56507223  0.78959976  0.31331069    -0.14900
C2246       C  0.56469884  0.81940999  0.32220389    -0.30100
H2247       H  0.58047303  0.77294350  0.32405444     0.14100
H2248       H  0.55087868  0.83641891  0.31011099     0.14700
C2249       C  0.65855037  0.86743053  0.17135728    -0.14900
C2250       C  0.67458951  0.84527483  0.18592445    -0.30100
H2251       H  0.65856346  0.89128155  0.17902144     0.14100
H2252       H  0.67298569  0.82121483  0.17893034     0.14700
C2253       C  0.67687522  0.85238999  0.31906040    -0.14900
C2254       C  0.65323583  0.87112934  0.32726453    -0.30100
H2255       H  0.67998198  0.83018247  0.33019303     0.14100
H2256       H  0.64805979  0.89207971  0.31474049     0.14700
C2257       C  0.90277144  0.70463538  0.06369091    -0.14900
C2258       C  0.88267808  0.69305327  0.08379397    -0.30100
H2259       H  0.92767416  0.70060672  0.06643202     0.14100
H2260       H  0.85781879  0.69759500  0.08139524     0.14700
C2261       C  0.88387634  0.69190503  0.43534048    -0.14900
C2262       C  0.90370424  0.69859418  0.41338856    -0.30100
H2263       H  0.86911962  0.67145437  0.43394595     0.14100
H2264       H  0.91684292  0.72016642  0.41457844     0.14700
C2265       C  0.68994656  0.61781245  0.33469830    -0.14900
C2266       C  0.70639698  0.59829588  0.31757415    -0.30100
H2267       H  0.69144414  0.64263368  0.33036344     0.14100
H2268       H  0.70618254  0.57354271  0.32240382     0.14700
C2269       C  0.69288181  0.55503942  0.42923255    -0.14900
C2270       C  0.72327068  0.55413574  0.43605154    -0.30100
H2271       H  0.67641447  0.54062001  0.44136554     0.14100
H2272       H  0.73949508  0.57058938  0.42620055     0.14700
C2273       C  0.69383271  0.62314308  0.17065658    -0.14900
C2274       C  0.70834879  0.60289674  0.18882695    -0.30100
H2275       H  0.69617787  0.64798570  0.17417505     0.14100
H2276       H  0.70676992  0.57814316  0.18441035     0.14700
C2277       C  0.70159369  0.56312691  0.07755643    -0.14900
C2278       C  0.68956319  0.54145012  0.05998239    -0.30100
H2279       H  0.72670164  0.56701529  0.07718706     0.14100
H2280       H  0.66483574  0.53593295  0.06159137     0.14700
C2281       C  0.81995086  0.88946560  0.17419167    -0.14900
C2282       C  0.79197826  0.87610742  0.17696860    -0.30100
H2283       H  0.83171485  0.89833096  0.19363435     0.14100
H2284       H  0.78035405  0.86655465  0.15776699     0.14700
C2285       C  0.81498147  0.93833667  0.07320579    -0.14900
C2286       C  0.78381173  0.94107050  0.06948562    -0.30100
H2287       H  0.83074131  0.95062860  0.05844345     0.14100
H2288       H  0.76797495  0.92649246  0.08214741     0.14700
C2289       C  0.85391477  0.84010052  0.07909604    -0.14900
C2290       C  0.87514532  0.83752624  0.05742207    -0.30100
H2291       H  0.83713341  0.82146298  0.08231049     0.14100
H2292       H  0.89346583  0.85480817  0.05528688     0.14700
C2293       C  0.81657164  0.87135012  0.33079840    -0.14900
C2294       C  0.80359324  0.89176386  0.31189152    -0.30100
H2295       H  0.81384419  0.84655275  0.32718243     0.14100
H2296       H  0.80585206  0.91649587  0.31619900     0.14700
C2297       C  0.79699457  0.92787736  0.42431491    -0.14900
C2298       C  0.80648313  0.95095461  0.44182342    -0.30100
H2299       H  0.77230878  0.92206732  0.42339636     0.14100
H2300       H  0.83077246  0.95822828  0.44154401     0.14700
C2301       C  0.86030344  0.84420799  0.43113578    -0.14900
C2302       C  0.84328480  0.81873942  0.43761610    -0.30100
H2303       H  0.88033796  0.85023278  0.44462046     0.14100
H2304       H  0.82175336  0.81431842  0.42568108     0.14700
C2305       C  0.65875868  0.67357897  0.43814288    -0.14900
C2306       C  0.64204904  0.64829518  0.43160400    -0.30100
H2307       H  0.68070369  0.67815822  0.42685711     0.14100
H2308       H  0.62149493  0.64234426  0.44451728     0.14700
C2309       C  0.65306435  0.67357657  0.06624472    -0.14900
C2310       C  0.63810916  0.64727319  0.07417159    -0.30100
H2311       H  0.67485109  0.67956674  0.07707886     0.14100
H2312       H  0.61786219  0.63967530  0.06174286     0.14700
C2313       C  0.60448599  0.79751076  0.06275779    -0.14900
C2314       C  0.62715889  0.81038484  0.07909714    -0.30100
H2315       H  0.58006825  0.80197576  0.06797018     0.14100
H2316       H  0.65160076  0.80508443  0.07481208     0.14700
C2317       C  0.60407299  0.79527650  0.43582572    -0.14900
C2318       C  0.62448306  0.81065591  0.41865037    -0.30100
H2319       H  0.57923501  0.79707555  0.43115352     0.14100
H2320       H  0.64939582  0.80811661  0.42266001     0.14700
C2321       C  0.55602901  0.91963223  0.13461363    -0.14900
C2322       C  0.57301786  0.90646605  0.11321854    -0.30100
H2323       H  0.55685186  0.91078611  0.15699382     0.14100
H2324       H  0.57156963  0.91564312  0.09088667     0.14700
C2325       C  0.60230655  0.56377244  0.13049615    -0.14900
C2326       C  0.58375568  0.55397521  0.10849024    -0.30100
H2327       H  0.59498394  0.55909419  0.15305698     0.14100
H2328       H  0.59058623  0.55790270  0.08573828     0.14700
C2329       C  0.93935681  0.60082305  0.13196948    -0.14900
C2330       C  0.94887774  0.58372481  0.10871793    -0.30100
H2331       H  0.94587506  0.59320496  0.15397188     0.14100
H2332       H  0.94255007  0.59043448  0.08645082     0.14700
C2333       C  0.91128760  0.92908262  0.11409625    -0.14900
C2334       C  0.92752085  0.94240828  0.13627904    -0.30100
H2335       H  0.91972476  0.93147157  0.09163261     0.14100
H2336       H  0.91944407  0.94070095  0.15880887     0.14700
C2337       C  0.59861174  0.56538368  0.39029168    -0.14900
C2338       C  0.58160881  0.55172974  0.36935847    -0.30100
H2339       H  0.59054730  0.56389936  0.41298323     0.14100
H2340       H  0.58908596  0.55264140  0.34649163     0.14700
C2341       C  0.56427020  0.90461695  0.38385775    -0.14900
C2342       C  0.55190291  0.92213960  0.36216047    -0.30100
H2343       H  0.55913895  0.91061017  0.40659997     0.14100
H2344       H  0.55663631  0.91680522  0.33929731     0.14700
C2345       C  0.91625277  0.94533063  0.36460810    -0.14900
C2346       C  0.89983429  0.93265788  0.38708372    -0.30100
H2347       H  0.90840428  0.94241611  0.34209967     0.14100
H2348       H  0.90771389  0.93651067  0.40950509     0.14700
C2349       C  0.95076955  0.58062509  0.38790340    -0.14900
C2350       C  0.94440873  0.59946985  0.36482668    -0.30100
H2351       H  0.94418709  0.58721640  0.41009838     0.14100
H2352       H  0.95068598  0.59190009  0.34280756     0.14700
O2353       O  0.52822218  0.96064769  0.88470264    -0.71400
O2354       O  0.97163786  0.53242716  0.89334066    -0.72400
O2355       O  0.95384684  0.97345539  0.88923747    -0.61000
O2356       O  0.53807576  0.51649296  0.88274112    -0.69400
O2357       O  0.53476743  0.52098341  0.83403962    -0.69000
O2358       O  0.94998475  0.98240305  0.84111490    -0.60200
O2359       O  0.96748760  0.54056080  0.84512490    -0.72700
O2360       O  0.52461123  0.96719760  0.83629148    -0.71500
Cu2361     Cu  0.49858061  0.49075397  0.88473427     1.04600
Cu2362     Cu  0.98899430  0.00666288  0.83989552     1.04300
C2363       C  0.53446535  0.95163768  0.85858140     0.94800
C2364       C  0.96249071  0.54911434  0.87176133     0.93900
C2365       C  0.93920973  0.97057564  0.86474519     0.86100
C2366       C  0.54864144  0.52686362  0.85813600     0.92300
O2367       O  0.95218122  0.97251579  0.61299970    -0.71400
O2368       O  0.54008202  0.51882093  0.59052938    -0.72400
O2369       O  0.52192143  0.95935980  0.60253861    -0.61000
O2370       O  0.97277723  0.52800600  0.60003451    -0.69400
O2371       O  0.97557668  0.53810702  0.64784288    -0.69000
O2372       O  0.52308216  0.96998103  0.65034616    -0.60200
O2373       O  0.54414172  0.52923367  0.63819323    -0.72700
O2374       O  0.95788977  0.97682205  0.66137589    -0.71500
Cu2375     Cu  0.98946698  0.99783138  0.60397124     1.04600
Cu2376     Cu  0.00338853  0.50055250  0.65516610     1.04300
C2377       C  0.94286465  0.96644870  0.63906211     0.94800
C2378       C  0.55453950  0.53174311  0.61177716     0.93900
C2379       C  0.53097340  0.95278010  0.62876777     0.86100
C2380       C  0.96548984  0.54500838  0.62204251     0.92300
O2381       O  0.63514289  0.77206813  0.96577859    -0.71400
O2382       O  0.66641412  0.71416442  0.53408779    -0.72400
O2383       O  0.65902888  0.71096844  0.96807036    -0.61000
O2384       O  0.64073522  0.77513781  0.53247789    -0.69400
O2385       O  0.59298340  0.75497740  0.53196989    -0.69000
O2386       O  0.61076998  0.69215518  0.97091553    -0.60200
O2387       O  0.61886285  0.69366197  0.53302277    -0.72700
O2388       O  0.58677612  0.75385896  0.96906316    -0.71500
Cu2389     Cu  0.65039279  0.74327040  0.99806388     1.04600
Cu2390     Cu  0.59869973  0.72343453  0.00133321     1.04300
C2391       C  0.60668609  0.77212512  0.95709980     0.94800
C2392       C  0.64657638  0.69419680  0.54346136     0.93900
C2393       C  0.63825103  0.69169950  0.95988220     0.86100
C2394       C  0.61251794  0.77483798  0.54166828     0.92300
C2395       C  0.82456102  0.89156910  0.85944984     0.88000
C2396       C  0.83673975  0.86441268  0.87818351    -0.52200
C2397       C  0.84950674  0.87347714  0.90435779     0.10900
C2398       C  0.84901154  0.90871697  0.90933657     0.21900
C2399       C  0.80166515  0.90864393  0.87967242    -0.52900
C2400       C  0.81439360  0.91790921  0.90561615     0.11000
C2401       C  0.85263985  0.91339864  0.85596089    -0.52500
C2402       C  0.86572552  0.92227386  0.88227067     0.11600
H2403       H  0.83533237  0.84026214  0.87146833     0.16100
H2404       H  0.85940673  0.91561868  0.93075179     0.01900
H2405       H  0.77733532  0.91286875  0.87402066     0.16400
H2406       H  0.86146219  0.91998653  0.83443901     0.16200
C2407       C  0.82620886  0.88773842  0.63810845     0.88000
C2408       C  0.80716097  0.90771010  0.61651058    -0.52200
C2409       C  0.82323314  0.91618847  0.59179417     0.10900
C2410       C  0.85688140  0.90348513  0.59086585     0.21900
C2411       C  0.83728920  0.85988135  0.61976047    -0.52900
C2412       C  0.85322568  0.86806834  0.59469409     0.11000
C2413       C  0.85588458  0.90649245  0.64449565    -0.52500
C2414       C  0.87201321  0.91487947  0.61969920     0.11600
H2415       H  0.78332528  0.91513205  0.62090156     0.16100
H2416       H  0.86982161  0.91028226  0.57058753     0.01900
H2417       H  0.83261698  0.83593659  0.62597575     0.16400
H2418       H  0.86302859  0.91254234  0.66666144     0.16200
C2419       C  0.67413863  0.60850733  0.64347832     0.88000
C2420       C  0.69537155  0.58827886  0.62448420    -0.52200
C2421       C  0.68183283  0.57773477  0.59937808     0.10900
C2422       C  0.64746867  0.58860780  0.59545839     0.21900
C2423       C  0.66353085  0.63473443  0.62280997    -0.52900
C2424       C  0.64987962  0.62447701  0.59733949     0.11000
C2425       C  0.64493591  0.58918553  0.64917774    -0.52500
C2426       C  0.63053657  0.57868185  0.62437943     0.11600
H2427       H  0.71964907  0.58356679  0.63000297     0.16100
H2428       H  0.63641959  0.58044996  0.57480263     0.01900
H2429       H  0.66699876  0.65915974  0.62770959     0.16400
H2430       H  0.63617057  0.58447575  0.67125603     0.16200
C2431       C  0.66414807  0.60555204  0.86266498     0.88000
C2432       C  0.65399522  0.63257209  0.88218931    -0.52200
C2433       C  0.63782299  0.62358520  0.90669860     0.10900
C2434       C  0.63267528  0.58846075  0.90912213     0.21900
C2435       C  0.68226095  0.58361420  0.88338562    -0.52900
C2436       C  0.66546612  0.57434930  0.90754794     0.11000
C2437       C  0.63378136  0.58813450  0.85544573    -0.52500
C2438       C  0.61737315  0.57900725  0.88007649     0.11600
H2439       H  0.65956996  0.65666894  0.87729142     0.16100
H2440       H  0.61942268  0.58130832  0.92911989     0.01900
H2441       H  0.70573615  0.57540994  0.87867101     0.16400
H2442       H  0.62655309  0.58342355  0.83302043     0.16200
O2443       O  0.74144392  0.53438421  0.53513589    -0.71400
O2444       O  0.79605256  0.99424770  0.98151212    -0.72400
O2445       O  0.74456617  0.53285709  0.97016039    -0.61000
O2446       O  0.77997127  0.98479601  0.53462001    -0.69400
O2447       O  0.74243771  0.95068955  0.52517482    -0.69000
O2448       O  0.70248213  0.50291996  0.96671829    -0.60200
O2449       O  0.75794650  0.96085665  0.97190179    -0.72700
O2450       O  0.70395600  0.50088317  0.52399092    -0.71500
Cu2451     Cu  0.76287151  0.50699849  0.00184103     1.04600
Cu2452     Cu  0.72813834  0.98093945  0.00007688     1.04300
C2453       C  0.71327755  0.52471872  0.53803556     0.94800
C2454       C  0.78585371  0.97054510  0.96777843     0.93900
C2455       C  0.71827313  0.52674729  0.95856585     0.86100
C2456       C  0.76669438  0.95874784  0.53964776     0.92300
O2457       O  0.90638378  0.73225470  0.53042262    -0.71400
O2458       O  0.88589561  0.80047096  0.96138140    -0.72400
O2459       O  0.88458690  0.79544142  0.53234609    -0.61000
O2460       O  0.89926577  0.73585865  0.96223288    -0.69400
O2461       O  0.84966522  0.72554009  0.97255709    -0.69000
O2462       O  0.83580670  0.77813421  0.53466489    -0.60200
O2463       O  0.83630025  0.78955679  0.97160446    -0.72700
O2464       O  0.85747097  0.71576514  0.53472203    -0.71500
Cu2465     Cu  0.90128581  0.77037723  0.99211514     1.04600
Cu2466     Cu  0.84822999  0.75944474  0.00335094     1.04300
C2467       C  0.88623354  0.71431384  0.54236877     0.94800
C2468       C  0.85669947  0.80435209  0.95662797     0.93900
C2469       C  0.85708171  0.79661614  0.54348090     0.86100
C2470       C  0.87422404  0.72058111  0.95716999     0.92300
O2471       O  0.69289065  0.88865745  0.71768620    -0.71400
O2472       O  0.75502018  0.91298626  0.77926073    -0.72400
O2473       O  0.75452281  0.91273714  0.71685466    -0.61000
O2474       O  0.69362285  0.88792240  0.78057199    -0.69400
O2475       O  0.71374226  0.84029987  0.78047629    -0.69000
O2476       O  0.77374102  0.86473224  0.71705486    -0.60200
O2477       O  0.77470441  0.86516565  0.77968658    -0.72700
O2478       O  0.71252926  0.84084270  0.71742954    -0.71500
Cu2479     Cu  0.72332541  0.90225731  0.74862396     1.04600
Cu2480     Cu  0.74434617  0.85108850  0.74867353     1.04300
C2481       C  0.69325694  0.86107722  0.70742989     0.94800
C2482       C  0.77436405  0.89302464  0.78939084     0.93900
C2483       C  0.77341866  0.89236572  0.70670343     0.86100
C2484       C  0.69440185  0.86011326  0.79072522     0.92300
C2485       C  0.60678527  0.82736818  0.88870808     0.88000
C2486       C  0.58496786  0.81057009  0.86715454    -0.52200
C2487       C  0.57644069  0.82835054  0.84336429     0.10900
C2488       C  0.59058056  0.86106775  0.84323980     0.21900
C2489       C  0.63446013  0.83797968  0.86953267    -0.52900
C2490       C  0.62592198  0.85542718  0.84556070     0.11000
C2491       C  0.58945745  0.85755762  0.89676977    -0.52500
C2492       C  0.58083277  0.87537411  0.87296782     0.11600
H2493       H  0.57688665  0.78691696  0.87061108     0.16100
H2494       H  0.58415774  0.87462798  0.82333480     0.01900
H2495       H  0.65857561  0.83189838  0.87434065     0.16400
H2496       H  0.58435801  0.86413797  0.91935106     0.16200
C2497       C  0.61140621  0.83286080  0.60586597     0.88000
C2498       C  0.63783800  0.84421209  0.62581282    -0.52200
C2499       C  0.62773359  0.86132257  0.64928008     0.10900
C2500       C  0.59205392  0.86637717  0.64991316     0.21900
C2501       C  0.58907015  0.81566695  0.62671868    -0.52900
C2502       C  0.57888029  0.83318940  0.64982590     0.11000
C2503       C  0.59378834  0.86227404  0.59635830    -0.52500
C2504       C  0.58328878  0.87996122  0.61926013     0.11600
H2505       H  0.66223106  0.83819883  0.62231422     0.16100
H2506       H  0.58423758  0.87999237  0.66922628     0.01900
H2507       H  0.58189217  0.79178974  0.62319792     0.16400
H2508       H  0.58936713  0.86817713  0.57341960     0.16200
C2509       C  0.88771778  0.66339005  0.61288459     0.88000
C2510       C  0.86065831  0.65469419  0.63361890    -0.52200
C2511       C  0.87016043  0.64198544  0.65978105     0.10900
C2512       C  0.90579071  0.63866100  0.66254432     0.21900
C2513       C  0.90858085  0.68473521  0.63145140    -0.52900
C2514       C  0.91820192  0.67167914  0.65737857     0.11000
C2515       C  0.90677607  0.63309971  0.60915785    -0.52500
C2516       C  0.91634018  0.62006623  0.63540843     0.11600
H2517       H  0.83622790  0.65863678  0.62825403     0.16100
H2518       H  0.91338602  0.62835092  0.68389309     0.01900
H2519       H  0.91552684  0.70784149  0.62432034     0.16400
H2520       H  0.91235077  0.62349456  0.58773412     0.16200
C2521       C  0.89996985  0.67378421  0.88755139     0.88000
C2522       C  0.91783009  0.69347161  0.86476600    -0.52200
C2523       C  0.92210335  0.67913472  0.83831977     0.10900
C2524       C  0.90796060  0.64659023  0.83688209     0.21900
C2525       C  0.86901252  0.66524469  0.87187946    -0.52900
C2526       C  0.87361556  0.65075540  0.84534047     0.11000
C2527       C  0.91836535  0.64294390  0.88935834    -0.52500
C2528       C  0.92233613  0.62870337  0.86262054     0.11600
H2529       H  0.92735346  0.71624732  0.86966970     0.16100
H2530       H  0.91137436  0.63513556  0.81518686     0.01900
H2531       H  0.84586869  0.66941669  0.88074436     0.16400
H2532       H  0.92754562  0.63374610  0.90991456     0.16200
O2533       O  0.98588213  0.71569358  0.71298511    -0.71400
O2534       O  0.54015734  0.75027129  0.77578784    -0.72400
O2535       O  0.98598606  0.71736603  0.77488915    -0.61000
O2536       O  0.54039468  0.75136653  0.71311931    -0.69400
O2537       O  0.51349177  0.79559440  0.71344841    -0.69000
O2538       O  0.95904633  0.76156406  0.77432384    -0.60200
O2539       O  0.51338223  0.79456879  0.77608505    -0.72700
O2540       O  0.95864386  0.75968039  0.71143778    -0.71500
Cu2541     Cu  0.51324201  0.73230507  0.74427895     1.04600
Cu2542     Cu  0.98610353  0.77940305  0.74221644     1.04300
C2543       C  0.96315181  0.73177467  0.70285457     0.94800
C2544       C  0.53536642  0.77734222  0.78619164     0.93900
C2545       C  0.96374855  0.73430635  0.78468925     0.86100
C2546       C  0.53582643  0.77892831  0.70346382     0.92300
O2547       O  0.74092138  0.58755281  0.78702810    -0.71400
O2548       O  0.80279078  0.61384212  0.72567756    -0.72400
O2549       O  0.80150559  0.61477370  0.78833863    -0.61000
O2550       O  0.74216550  0.58778404  0.72497941    -0.69400
O2551       O  0.72152639  0.63522931  0.72410146    -0.69000
O2552       O  0.78012369  0.66184706  0.78763099    -0.60200
O2553       O  0.78186910  0.66110443  0.72446028    -0.72700
O2554       O  0.71982753  0.63477308  0.78666966    -0.71500
Cu2555     Cu  0.77260269  0.59935457  0.75660504     1.04600
Cu2556     Cu  0.75011726  0.64991278  0.75575730     1.04300
C2557       C  0.72056217  0.60680499  0.79640973     0.94800
C2558       C  0.80177095  0.64131754  0.71492037     0.93900
C2559       C  0.80009911  0.64265490  0.79799558     0.86100
C2560       C  0.72283620  0.60750684  0.71431581     0.92300
C2561       C  0.94355316  0.72254505  0.80850137    -0.14900
C2562       C  0.94092327  0.69195870  0.81383389    -0.30100
H2563       H  0.93026313  0.73917088  0.82141354     0.14100
H2564       H  0.95233320  0.67545146  0.79929065     0.14700
C2565       C  0.84884563  0.63831365  0.82608231    -0.14900
C2566       C  0.82194009  0.65333087  0.82094776    -0.30100
H2567       H  0.85465471  0.61790372  0.81314070     0.14100
H2568       H  0.81715886  0.67521626  0.83193714     0.14700
C2569       C  0.93941347  0.68688330  0.67855382    -0.14900
C2570       C  0.94177143  0.71790631  0.68121369    -0.30100
H2571       H  0.95262576  0.67179981  0.69326286     0.14100
H2572       H  0.92690164  0.73329112  0.66833327     0.14700
C2573       C  0.84863530  0.63321176  0.68401295    -0.14900
C2574       C  0.82316202  0.65018207  0.69074637    -0.30100
H2575       H  0.85507438  0.61344546  0.69772143     0.14100
H2576       H  0.81810019  0.67136708  0.67849217     0.14700
C2577       C  0.55773246  0.82137097  0.67312390    -0.14900
C2578       C  0.55657373  0.79105541  0.68033751    -0.30100
H2579       H  0.54395323  0.83815503  0.68538839     0.14100
H2580       H  0.57204976  0.77452826  0.66967395     0.14700
C2581       C  0.55530259  0.78801088  0.81051261    -0.14900
C2582       C  0.55581645  0.81769583  0.81932107    -0.30100
H2583       H  0.57058496  0.77100588  0.82094540     0.14100
H2584       H  0.54226117  0.83511818  0.80747784     0.14700
C2585       C  0.64851006  0.87083101  0.67379304    -0.14900
C2586       C  0.67200442  0.85238421  0.68324844    -0.30100
H2587       H  0.64314432  0.89223946  0.68530731     0.14100
H2588       H  0.67574643  0.82991395  0.67302970     0.14700
C2589       C  0.67327324  0.85025009  0.81469945    -0.14900
C2590       C  0.64797253  0.86673686  0.82268301    -0.30100
H2591       H  0.67800111  0.82797969  0.82520157     0.14100
H2592       H  0.64183211  0.88774177  0.81062111     0.14700
C2593       C  0.89673756  0.69273052  0.56586611    -0.14900
C2594       C  0.87670155  0.67881148  0.58457402    -0.30100
H2595       H  0.92169704  0.69092598  0.56997780     0.14100
H2596       H  0.85172235  0.68141555  0.58099105     0.14700
C2597       C  0.87294604  0.69839978  0.93218736    -0.14900
C2598       C  0.89886345  0.69061003  0.91697988    -0.30100
H2599       H  0.85018528  0.69027007  0.92532176     0.14100
H2600       H  0.92135560  0.69820471  0.92536592     0.14700
C2601       C  0.68287363  0.61629200  0.83631162    -0.14900
C2602       C  0.69823838  0.59622995  0.81901520    -0.30100
H2603       H  0.68587484  0.64111019  0.83272536     0.14100
H2604       H  0.69638265  0.57142873  0.82327330     0.14700
C2605       C  0.67654878  0.55157873  0.92966888    -0.14900
C2606       C  0.70693008  0.54790606  0.93555215    -0.30100
H2607       H  0.65923565  0.53884984  0.94242153     0.14100
H2608       H  0.72411316  0.56261481  0.92473216     0.14700
C2609       C  0.69002272  0.61907621  0.67121853    -0.14900
C2610       C  0.70271425  0.59816410  0.68982926    -0.30100
H2611       H  0.69286081  0.64381777  0.67508541     0.14100
H2612       H  0.70070931  0.57348787  0.68516216     0.14700
C2613       C  0.70165516  0.56159277  0.57747720    -0.14900
C2614       C  0.69116880  0.54106995  0.55777781    -0.30100
H2615       H  0.72667906  0.56558784  0.57898728     0.14100
H2616       H  0.66652498  0.53521196  0.55703066     0.14700
C2617       C  0.80801783  0.87898167  0.66533879    -0.14900
C2618       C  0.79438795  0.90075346  0.68226074    -0.30100
H2619       H  0.80466085  0.85449014  0.67035640     0.14100
H2620       H  0.79689732  0.92519326  0.67658684     0.14700
C2621       C  0.81013689  0.93691146  0.56870618    -0.14900
C2622       C  0.77944009  0.93760230  0.56225194    -0.30100
H2623       H  0.82632203  0.95125212  0.55618846     0.14100
H2624       H  0.76355466  0.92124425  0.57268191     0.14700
C2625       C  0.86441814  0.84538177  0.57226890    -0.14900
C2626       C  0.84885230  0.81883530  0.56702298    -0.30100
H2627       H  0.88408028  0.85180344  0.55837120     0.14100
H2628       H  0.82755717  0.81398042  0.57924284     0.14700
C2629       C  0.80971310  0.88167214  0.83088016    -0.14900
C2630       C  0.79531280  0.90247582  0.81337858    -0.30100
H2631       H  0.80838645  0.85704968  0.82585627     0.14100
H2632       H  0.79603328  0.92698172  0.81904145     0.14700
C2633       C  0.79502147  0.93352394  0.92797415    -0.14900
C2634       C  0.80653666  0.95432643  0.94692355    -0.30100
H2635       H  0.77001067  0.92910453  0.92748567     0.14100
H2636       H  0.83112350  0.96053209  0.94626149     0.14700
C2637       C  0.86186335  0.85148979  0.92644238    -0.14900
C2638       C  0.84599941  0.82571703  0.93348699    -0.30100
H2639       H  0.88266439  0.85784490  0.93871724     0.14100
H2640       H  0.82347758  0.82122940  0.92330562     0.14700
C2641       C  0.64653216  0.66935215  0.93703947    -0.14900
C2642       C  0.62820548  0.64533928  0.92993611    -0.30100
H2643       H  0.66891109  0.67250425  0.92607196     0.14100
H2644       H  0.60702384  0.64050935  0.94234763     0.14700
C2645       C  0.65595947  0.67211655  0.56693722    -0.14900
C2646       C  0.64006337  0.64581283  0.57313242    -0.30100
H2647       H  0.67716547  0.67738048  0.57905039     0.14100
H2648       H  0.62041606  0.63905356  0.55947495     0.14700
C2649       C  0.60213048  0.79738341  0.56380590    -0.14900
C2650       C  0.62247785  0.81295477  0.58070468    -0.30100
H2651       H  0.57716778  0.79977673  0.56772336     0.14100
H2652       H  0.64746298  0.80967037  0.57754502     0.14700
C2653       C  0.59643311  0.79310378  0.93287228    -0.14900
C2654       C  0.61689601  0.80764428  0.91493122    -0.30100
H2655       H  0.57154235  0.79547572  0.92872331     0.14100
H2656       H  0.64176750  0.80428780  0.91858898     0.14700
C2657       C  0.55070877  0.92525198  0.63495490    -0.14900
C2658       C  0.56380066  0.90811592  0.61356244    -0.30100
H2659       H  0.55463112  0.91950644  0.65791362     0.14100
H2660       H  0.55968556  0.91464796  0.59071339     0.14700
C2661       C  0.60117631  0.56047042  0.62767702    -0.14900
C2662       C  0.58360834  0.54948020  0.60557975    -0.30100
H2663       H  0.59346619  0.55604991  0.65017306     0.14100
H2664       H  0.59063301  0.55305896  0.58281618     0.14700
C2665       C  0.93610206  0.59156134  0.63912634    -0.14900
C2666       C  0.94536013  0.57281259  0.61704736    -0.30100
H2667       H  0.94334366  0.58589304  0.66145641     0.14100
H2668       H  0.93813193  0.57773218  0.59461437     0.14700
C2669       C  0.90091956  0.93384696  0.61915131    -0.14900
C2670       C  0.91454517  0.94711771  0.64282968    -0.30100
H2671       H  0.91116098  0.93740017  0.59747613     0.14100
H2672       H  0.90510999  0.94396944  0.66483461     0.14700
C2673       C  0.58855419  0.56006293  0.88052556    -0.14900
C2674       C  0.57694724  0.54603742  0.85671096    -0.30100
H2675       H  0.57707835  0.55676888  0.90167326     0.14100
H2676       H  0.58776942  0.54913950  0.83530381     0.14700
C2677       C  0.56329340  0.90514343  0.87658809    -0.14900
C2678       C  0.55286028  0.92283705  0.85393277    -0.30100
H2679       H  0.55837808  0.91248148  0.89899929     0.14100
H2680       H  0.55713530  0.91614326  0.83133736     0.14700
C2681       C  0.90959695  0.95358241  0.86242833    -0.14900
C2682       C  0.89471794  0.94090260  0.88549406    -0.30100
H2683       H  0.89996083  0.95173076  0.84045022     0.14100
H2684       H  0.90434471  0.94360574  0.90747692     0.14700
C2685       C  0.94638523  0.57857141  0.87836039    -0.14900
C2686       C  0.93870477  0.59890036  0.85714415    -0.30100
H2687       H  0.94108354  0.58354214  0.90125691     0.14100
H2688       H  0.94379420  0.59319361  0.83432484     0.14700
loop_ 
_geom_bond_atom_site_label_1 
_geom_bond_atom_site_label_2 
_geom_bond_distance 
_geom_bond_site_symmetry_2 
_ccdc_geom_bond_type 
O1           C11   1.281       .  A
O1         Cu681   2.028   1_455  S
O2           C12   1.279       .  A
O2        Cu1353   2.023   1_545  S
O3           C13   1.281       .  A
O3        Cu2025   2.032       .  S
O4           C14   1.279       .  A
O4           Cu9   2.019   1_445  S
O5           C14   1.279       .  A
O5        Cu2026   2.024   1_455  S
O6           C13   1.274       .  A
O6          Cu10   1.981       .  S
O7           C12   1.278       .  A
O7         Cu682   2.013       .  S
O8           C11   1.275       .  A
O8        Cu1354   1.999       .  S
Cu9         O673   2.017   1_655  S
Cu9        O1346   2.018   1_565  S
Cu9        O2019   2.029       .  S
Cu9       Cu2026   2.372   1_565  S
Cu10       O2021   1.987       .  S
Cu10        O679   2.039       .  S
Cu10       O1352   2.034       .  S
Cu10      Cu2025   2.374       .  S
C11         C326   1.477       .  S
C12         C333   1.483       .  S
C13         C329   1.478       .  S
C14         C322   1.483       .  S
O15          C25   1.278       .  A
O15         Cu23   2.017       .  S
O16          C26   1.275       .  A
O16       Cu2039   2.000   1_545  S
O17          C27   1.283       .  A
O17       Cu1367   2.035       .  S
O18          C28   1.278       .  A
O18        Cu695   2.017   1_545  S
O19          C28   1.277       .  A
O19         Cu24   1.990       .  S
O20          C27   1.274       .  A
O20       Cu2040   1.999       .  S
O21          C26   1.281       .  A
O21       Cu1368   2.025       .  S
O22          C25   1.282       .  A
O22        Cu696   2.037       .  S
Cu23       O2032   2.018       .  S
Cu23       O1361   2.024       .  S
Cu23        O690   2.030       .  S
Cu23       Cu696   2.371       .  S
Cu24       O2036   1.988   1_545  S
Cu24       O1365   2.024       .  S
Cu24        O694   2.022   1_545  S
Cu24       Cu695   2.373   1_545  S
C25         C318   1.490       .  S
C26         C310   1.477       .  S
C27         C305   1.481       .  S
C28         C314   1.475       .  S
O29          C39   1.276       .  A
O29         Cu37   2.003       .  S
O30          C40   1.278       .  A
O30        Cu373   2.010   1_554  S
O31          C41   1.278       .  A
O31         Cu37   2.017       .  S
O32          C42   1.275       .  A
O32        Cu373   1.992   1_554  S
O33          C42   1.279       .  A
O33        Cu374   2.016       .  S
O34          C41   1.279       .  A
O34         Cu38   2.018       .  S
O35          C40   1.278       .  A
O35        Cu374   2.008       .  S
O36          C39   1.279       .  A
O36         Cu38   2.018       .  S
Cu37        O366   2.006       .  S
Cu37        O368   2.012       .  S
Cu37        Cu38   2.374       .  S
Cu38        O369   2.012       .  S
Cu38        O371   2.031       .  S
C39         C301   1.473       .  S
C40         C293   1.473       .  S
C41         C289   1.480       .  S
C42         C297   1.469       .  S
C43          C44   1.533       .  S
C43          C49   1.535       .  S
C43          C47   1.536       .  S
C43         C277   1.512       .  S
C44          H51   1.086       .  S
C44          C45   1.366       .  D
C45          C46   1.534       .  S
C45         C285   1.475       .  S
C46          C50   1.538       .  S
C46          C48   1.534       .  S
C46          H52   1.108       .  S
C47          H53   1.086       .  S
C47          C48   1.367       .  D
C48         C281   1.475       .  S
C49          H54   1.086       .  S
C49          C50   1.368       .  D
C50         C330   1.482       .  S
C55          C56   1.532       .  S
C55          C61   1.538       .  S
C55          C59   1.538       .  S
C55         C265   1.509       .  S
C56          H63   1.086       .  S
C56          C57   1.361       .  D
C57          C58   1.539       .  S
C57         C269   1.477       .  S
C58          C62   1.548       .  S
C58          C60   1.543       .  S
C58          H64   1.111       .  S
C59          H65   1.086       .  S
C59          C60   1.367       .  D
C60         C273   1.489       .  S
C61          H66   1.084       .  S
C61          C62   1.371       .  D
C62         C317   1.499       .  S
C67          C68   1.537       .  S
C67          C73   1.534       .  S
C67          C71   1.530       .  S
C67         C257   1.510       .  S
C68          H75   1.085       .  S
C68          C69   1.366       .  D
C69          C70   1.538       .  S
C69         C261   1.484       .  S
C70          C74   1.548       .  S
C70          C72   1.540       .  S
C70          H76   1.108       .  S
C71          H77   1.085       .  S
C71          C72   1.368       .  D
C72         C294   1.481       .  S
C73          H78   1.087       .  S
C73          C74   1.364       .  D
C74         C309   1.488       .  S
C79          C80   1.538       .  S
C79          C85   1.540       .  S
C79          C83   1.533       .  S
C79         C249   1.517       .  S
C80          H87   1.086       .  S
C80          C81   1.368       .  D
C81          C82   1.539       .  S
C81         C290   1.487       .  S
C82          C86   1.545       .  S
C82          C84   1.533       .  S
C82          H88   1.108       .  S
C83          H89   1.086       .  S
C83          C84   1.364       .  D
C84         C253   1.474       .  S
C85          H90   1.086       .  S
C85          C86   1.371       .  D
C86         C321   1.495       .  S
O91         C101   1.278       .  A
O91        Cu435   2.013   1_554  S
O92         C102   1.277       .  A
O92        Cu771   1.998       .  S
O93         C103   1.275       .  A
O93         Cu99   1.997       .  S
O94         C104   1.273       .  A
O94       Cu1107   1.975       .  S
O95         C104   1.281       .  A
O95        Cu436   2.031       .  S
O96         C103   1.278       .  A
O96        Cu772   2.005   1_545  S
O97         C102   1.276       .  A
O97        Cu100   2.005       .  S
O98         C101   1.278       .  A
O98       Cu1108   2.008   1_545  S
Cu99        O427   2.012       .  S
Cu99        O764   2.003   1_545  S
Cu99       O1102   1.990   1_545  S
Cu99       Cu772   2.376   1_545  S
Cu100       O431   2.018       .  S
Cu100       O768   2.008       .  S
Cu100      O1106   2.004       .  S
Cu100      Cu771   2.376       .  S
C101        C262   1.475       .  S
C102        C282   1.469       .  S
C103        C254   1.466       .  S
C104        C270   1.470       .  S
O105        C115   1.285       .  A
O105       Cu449   2.048       .  S
O106        C116   1.278       .  A
O106       Cu113   2.009       .  S
O107        C117   1.274       .  A
O107       Cu449   1.998       .  S
O108        C118   1.279       .  A
O108       Cu113   2.013       .  S
O109        C118   1.278       .  A
O109       Cu114   2.019       .  S
O110        C117   1.284       .  A
O110       Cu450   2.051   1_554  S
O111        C116   1.275       .  A
O111       Cu114   1.998       .  S
O112        C115   1.271       .  A
O112       Cu450   1.980   1_554  S
Cu113       O441   2.014       .  S
Cu113       O443   2.017       .  S
Cu113      Cu114   2.374       .  S
Cu114       O446   2.031       .  S
Cu114       O448   2.000       .  S
C115        C241   1.478       .  S
C116        C286   1.467       .  S
C117        C274   1.486       .  S
C118        C245   1.481       .  S
O119        C129   1.279       .  A
O119       Cu127   2.022       .  S
O120        C130   1.276       .  A
O120       Cu127   2.008       .  S
O121        C131   1.278       .  A
O121       Cu127   2.014       .  S
O122        C132   1.280       .  A
O122       Cu127   2.022       .  S
O123        C132   1.276       .  A
O123       Cu128   2.001       .  S
O124        C131   1.276       .  A
O124       Cu128   1.998       .  S
O125        C130   1.279       .  A
O125       Cu128   2.017       .  S
O126        C129   1.280       .  A
O126       Cu128   2.024       .  S
Cu127      Cu128   2.374       .  S
C129        C234   1.485       .  S
C130        C278   1.475       .  S
C131        C266   1.471       .  S
C132        C237   1.476       .  S
C133        C134   1.530       .  S
C133        C139   1.533       .  S
C133        C137   1.536       .  S
C133        C302   1.512       .  S
C134        H141   1.086       .  S
C134        C135   1.364       .  D
C135        C136   1.534       .  S
C135        C230   1.477       .  S
C136        C140   1.548       .  S
C136        C138   1.539       .  S
C136        H142   1.107       .  S
C137        H143   1.086       .  S
C137        C138   1.371       .  D
C138        C238   1.484       .  S
C139        H144   1.086       .  S
C139        C140   1.366       .  D
C140        C325   1.489       .  S
C145        C146   1.539       .  S
C145        C151   1.528       .  S
C145        C149   1.528       .  S
C145        C298   1.508       .  S
C146        H153   1.086       .  S
C146        C147   1.372       .  D
C147        C148   1.545       .  S
C147        C233   1.491       .  S
C148        C152   1.552       .  S
C148        C150   1.540       .  S
C148        H154   1.108       .  S
C149        H155   1.086       .  S
C149        C150   1.363       .  D
C150        C225   1.480       .  S
C151        H156   1.087       .  S
C151        C152   1.362       .  D
C152        C306   1.490       .  S
C157        C158   1.555       .  S
C157        C163   1.538       .  S
C157        C161   1.530       .  S
C157        C242   1.519       .  S
C158        H165   1.083       .  S
C158        C159   1.373       .  D
C159        C160   1.528       .  S
C159        C221   1.481       .  S
C160        C164   1.530       .  S
C160        C162   1.530       .  S
C160        H166   1.112       .  S
C161        H167   1.087       .  S
C161        C162   1.362       .  D
C162        C217   1.472       .  S
C163        H168   1.085       .  S
C163        C164   1.367       .  D
C164        C313   1.478       .  S
C169        C170   1.535       .  S
C169        C175   1.538       .  S
C169        C173   1.543       .  S
C169        C246   1.520       .  S
C170        H177   1.086       .  S
C170        C171   1.364       .  D
C171        C172   1.533       .  S
C171        C210   1.481       .  S
C172        C176   1.541       .  S
C172        C174   1.547       .  S
C172        H178   1.109       .  S
C173        H179   1.083       .  S
C173        C174   1.367       .  D
C174        C213   1.490       .  S
C175        H180   1.084       .  S
C175        C176   1.372       .  D
C176        C334   1.493       .  S
O181        C191   1.276       .  A
O181      Cu1533   1.984       .  S
O182        C192   1.275       .  A
O182       Cu189   1.994       .  S
O183        C193   1.279       .  A
O183      Cu1533   2.012       .  S
O184        C194   1.278       .  A
O184       Cu189   2.010       .  S
O185        C194   1.276       .  A
O185      Cu1534   1.995   1_455  S
O186        C193   1.277       .  A
O186       Cu190   2.006       .  S
O187        C192   1.277       .  A
O187      Cu1534   2.001   1_455  S
O188        C191   1.277       .  A
O188       Cu190   2.008       .  S
Cu189      O1525   1.989   1_455  S
Cu189      O1527   2.005   1_455  S
Cu189     Cu1534   2.379   1_455  S
Cu190      O1529   2.002       .  S
Cu190      O1531   2.002       .  S
Cu190     Cu1533   2.377       .  S
C191        C218   1.465       .  S
C192        C229   1.464       .  S
C193        C209   1.472       .  S
C194        C226   1.468       .  S
O195        C205   1.281       .  A
O195       Cu203   2.031       .  S
O196        C206   1.282       .  A
O196       Cu203   2.032       .  S
O197        C207   1.274       .  A
O197       Cu203   1.992       .  S
O198        C208   1.272       .  A
O198       Cu203   1.980       .  S
O199        C208   1.281       .  A
O199       Cu204   2.031       .  S
O200        C207   1.283       .  A
O200       Cu204   2.044       .  S
O201        C206   1.275       .  A
O201       Cu204   2.001       .  S
O202        C205   1.276       .  A
O202       Cu204   2.002       .  S
Cu203      Cu204   2.374       .  S
C205        C250   1.481       .  S
C206        C222   1.479       .  S
C207        C214   1.479       .  S
C208        C258   1.468       .  S
C209        H211   1.086       .  S
C209        C210   1.343       .  D
C210        H212   1.086       .  S
C213        H215   1.086       .  S
C213        C214   1.341       .  D
C214        H216   1.085       .  S
C217        H219   1.086       .  S
C217        C218   1.342       .  D
C218        H220   1.086       .  S
C221        H223   1.086       .  S
C221        C222   1.340       .  D
C222        H224   1.087       .  S
C225        H227   1.086       .  S
C225        C226   1.346       .  D
C226        H228   1.086       .  S
C229        H231   1.086       .  S
C229        C230   1.342       .  D
C230        H232   1.086       .  S
C233        H235   1.085       .  S
C233        C234   1.349       .  D
C234        H236   1.086       .  S
C237        H239   1.085       .  S
C237        C238   1.344       .  D
C238        H240   1.084       .  S
C241        H243   1.083       .  S
C241        C242   1.338       .  D
C242        H244   1.087       .  S
C245        H247   1.082       .  S
C245        C246   1.347       .  D
C246        H248   1.087       .  S
C249        H251   1.086       .  S
C249        C250   1.350       .  D
C250        H252   1.086       .  S
C253        H255   1.087       .  S
C253        C254   1.341       .  D
C254        H256   1.087       .  S
C257        H259   1.086       .  S
C257        C258   1.340       .  D
C258        H260   1.087       .  S
C261        H263   1.086       .  S
C261        C262   1.346       .  D
C262        H264   1.086       .  S
C265        H267   1.087       .  S
C265        C266   1.346       .  D
C266        H268   1.088       .  S
C269        H271   1.086       .  S
C269        C270   1.349       .  D
C270        H272   1.086       .  S
C273        H275   1.085       .  S
C273        C274   1.353       .  D
C274        H276   1.086       .  S
C277        H279   1.086       .  S
C277        C278   1.344       .  D
C278        H280   1.086       .  S
C281        H283   1.086       .  S
C281        C282   1.341       .  D
C282        H284   1.086       .  S
C285        H287   1.086       .  S
C285        C286   1.340       .  D
C286        H288   1.087       .  S
C289        H291   1.086       .  S
C289        C290   1.347       .  D
C290        H292   1.086       .  S
C293        H295   1.086       .  S
C293        C294   1.345       .  D
C294        H296   1.086       .  S
C297        H299   1.087       .  S
C297        C298   1.349       .  D
C298        H300   1.086       .  S
C301        H303   1.086       .  S
C301        C302   1.348       .  D
C302        H304   1.085       .  S
C305        H307   1.083       .  S
C305        C306   1.341       .  D
C306        H308   1.087       .  S
C309        H311   1.087       .  S
C309        C310   1.342       .  D
C310        H312   1.083       .  S
C313        H315   1.086       .  S
C313        C314   1.344       .  D
C314        H316   1.085       .  S
C317        H319   1.085       .  S
C317        C318   1.354       .  D
C318        H320   1.084       .  S
C321        H323   1.086       .  S
C321        C322   1.349       .  D
C322        H324   1.083       .  S
C325        H327   1.086       .  S
C325        C326   1.343       .  D
C326        H328   1.081       .  S
C329        H331   1.083       .  S
C329        C330   1.350       .  D
C330        H332   1.086       .  S
C333        H335   1.084       .  S
C333        C334   1.349       .  D
C334        H336   1.086       .  S
O337        C347   1.275       .  A
O337      Cu1017   1.982   1_455  S
O338        C348   1.274       .  A
O338      Cu1689   2.000   1_545  S
O339        C349   1.283       .  A
O339      Cu2361   2.026       .  S
O340        C350   1.283       .  A
O340       Cu345   2.029   1_445  S
O341        C350   1.270       .  A
O341      Cu2362   1.970   1_455  S
O342        C349   1.272       .  A
O342       Cu346   1.985       .  S
O343        C348   1.283       .  A
O343      Cu1018   2.033       .  S
O344        C347   1.280       .  A
O344      Cu1690   2.026   1_455  S
Cu345      O1009   1.997   1_655  S
Cu345      O1682   1.995   1_565  S
Cu345      O2355   2.033       .  S
Cu345     Cu2362   2.375   1_565  S
Cu346      O2357   1.979       .  S
Cu346      O1015   2.037       .  S
Cu346      O1688   2.035       .  S
Cu346     Cu2361   2.375       .  S
C347        C662   1.475       .  S
C348        C669   1.482       .  S
C349        C665   1.473       .  S
C350        C658   1.467       .  S
O351        C361   1.278       .  A
O351       Cu359   2.012       .  S
O352        C362   1.270       .  A
O352      Cu2375   1.978   1_445  S
O353        C363   1.280       .  A
O353      Cu1703   2.026       .  S
O354        C364   1.280       .  A
O354      Cu1031   2.033   1_545  S
O355        C364   1.278       .  A
O355       Cu360   2.002       .  S
O356        C363   1.280       .  A
O356      Cu2376   2.034       .  S
O357        C362   1.286       .  A
O357      Cu1704   2.043   1_455  S
O358        C361   1.279       .  A
O358      Cu1032   2.022       .  S
Cu359      O2368   2.016       .  S
Cu359      O1697   2.033       .  S
Cu359      O1026   2.033       .  S
Cu359     Cu1032   2.372       .  S
Cu360      O2372   1.998   1_545  S
Cu360      O1701   2.024       .  S
Cu360      O1030   2.020   1_545  S
Cu360     Cu1031   2.372   1_545  S
C361        C654   1.481       .  S
C362        C646   1.478       .  S
C363        C641   1.492       .  S
C364        C650   1.485       .  S
O365        C375   1.280       .  A
O365       Cu373   2.011       .  S
O366        C376   1.277       .  A
O367        C377   1.274       .  A
O367       Cu373   1.991       .  S
O368        C378   1.279       .  A
O369        C378   1.277       .  A
O370        C377   1.279       .  A
O370       Cu374   2.012   1_556  S
O371        C376   1.280       .  A
O372        C375   1.276       .  A
O372       Cu374   2.007   1_556  S
Cu373      Cu374   2.376   1_556  S
C375        C637   1.476       .  S
C376        C629   1.479       .  S
C377        C625   1.467       .  S
C378        C633   1.478       .  S
C379        C380   1.543       .  S
C379        C385   1.539       .  S
C379        C383   1.534       .  S
C379        C613   1.525       .  S
C380        H387   1.085       .  S
C380        C381   1.378       .  D
C381        C382   1.533       .  S
C381        C621   1.487       .  S
C382        C386   1.530       .  S
C382        C384   1.529       .  S
C382        H388   1.112       .  S
C383        H389   1.086       .  S
C383        C384   1.362       .  D
C384        C617   1.482       .  S
C385        H390   1.084       .  S
C385        C386   1.376       .  D
C386        C666   1.483       .  S
C391        C392   1.534       .  S
C391        C397   1.533       .  S
C391        C395   1.536       .  S
C391        C601   1.514       .  S
C392        H399   1.086       .  S
C392        C393   1.366       .  D
C393        C394   1.541       .  S
C393        C605   1.484       .  S
C394        C398   1.546       .  S
C394        C396   1.548       .  S
C394        H400   1.110       .  S
C395        H401   1.086       .  S
C395        C396   1.365       .  D
C396        C609   1.490       .  S
C397        H402   1.084       .  S
C397        C398   1.371       .  D
C398        C653   1.493       .  S
C403        C404   1.526       .  S
C403        C409   1.519       .  S
C403        C407   1.532       .  S
C403        C593   1.500       .  S
C404        H411   1.087       .  S
C404        C405   1.359       .  D
C405        C406   1.551       .  S
C405        C597   1.481       .  S
C406        C410   1.558       .  S
C406        C408   1.550       .  S
C406        H412   1.109       .  S
C407        H413   1.086       .  S
C407        C408   1.373       .  D
C408        C630   1.490       .  S
C409        H414   1.087       .  S
C409        C410   1.356       .  D
C410        C645   1.482       .  S
C415        C416   1.535       .  S
C415        C421   1.535       .  S
C415        C419   1.535       .  S
C415        C585   1.511       .  S
C416        H423   1.086       .  S
C416        C417   1.368       .  D
C417        C418   1.530       .  S
C417        C626   1.475       .  S
C418        C422   1.530       .  S
C418        C420   1.531       .  S
C418        H424   1.112       .  S
C419        H425   1.086       .  S
C419        C420   1.365       .  D
C420        C589   1.473       .  S
C421        H426   1.084       .  S
C421        C422   1.374       .  D
C422        C657   1.482       .  S
O427        C437   1.281       .  A
O428        C438   1.281       .  A
O428      Cu1107   2.029   1_556  S
O429        C439   1.276       .  A
O429       Cu435   2.007       .  S
O430        C440   1.278       .  A
O430       Cu771   2.010       .  S
O431        C440   1.278       .  A
O432        C439   1.277       .  A
O432      Cu1108   1.990   1_546  S
O433        C438   1.272       .  A
O433       Cu436   1.976   1_556  S
O434        C437   1.276   1_565  A
O434       Cu772   2.016       .  S
Cu435      O1100   1.996   1_545  S
Cu435       O766   2.002   1_546  S
Cu435     Cu1108   2.377   1_546  S
Cu436      O1104   2.027   1_554  S
Cu436       O770   1.975       .  S
Cu436     Cu1107   2.377       .  S
C437        C598   1.483       .  S
C438        C618   1.466       .  S
C439        C590   1.467       .  S
C440        C606   1.476       .  S
O441        C451   1.278       .  A
O442        C452   1.285       .  A
O442       Cu449   2.051   1_556  S
O443        C453   1.277       .  A
O444        C454   1.273       .  A
O444       Cu449   1.998   1_556  S
O445        C454   1.284       .  A
O445       Cu450   2.046       .  S
O446        C453   1.281       .  A
O447        C452   1.271       .  A
O447       Cu450   1.980       .  S
O448        C451   1.277       .  A
Cu449      Cu450   2.372   1_554  S
C451        C577   1.474       .  S
C452        C622   1.477       .  S
C453        C610   1.485       .  S
C454        C581   1.484       .  S
O455        C465   1.275       .  A
O455       Cu463   2.008       .  S
O456        C466   1.279       .  A
O456       Cu463   2.013       .  S
O457        C467   1.281       .  A
O457       Cu463   2.035       .  S
O458        C468   1.279       .  A
O458       Cu463   2.020       .  S
O459        C468   1.274       .  A
O459       Cu464   1.988       .  S
O460        C467   1.273       .  A
O460       Cu464   1.985       .  S
O461        C466   1.280       .  A
O461       Cu464   2.040       .  S
O462        C465   1.282       .  A
O462       Cu464   2.027       .  S
Cu463      Cu464   2.373       .  S
C465        C570   1.480       .  S
C466        C614   1.491       .  S
C467        C602   1.467       .  S
C468        C573   1.465       .  S
C469        C470   1.539       .  S
C469        C475   1.533       .  S
C469        C473   1.531       .  S
C469        C638   1.510       .  S
C470        H477   1.086       .  S
C470        C471   1.370       .  D
C471        C472   1.535       .  S
C471        C566   1.480       .  S
C472        C476   1.540       .  S
C472        C474   1.535       .  S
C472        H478   1.107       .  S
C473        H479   1.086       .  S
C473        C474   1.365       .  D
C474        C574   1.479       .  S
C475        H480   1.086       .  S
C475        C476   1.367       .  D
C476        C661   1.481       .  S
C481        C482   1.527       .  S
C481        C487   1.532       .  S
C481        C485   1.535       .  S
C481        C634   1.513       .  S
C482        H489   1.087       .  S
C482        C483   1.360       .  D
C483        C484   1.549       .  S
C483        C569   1.483       .  S
C484        C488   1.555       .  S
C484        C486   1.541       .  S
C484        H490   1.108       .  S
C485        H491   1.086       .  S
C485        C486   1.368       .  D
C486        C561   1.481       .  S
C487        H492   1.086       .  S
C487        C488   1.370       .  D
C488        C642   1.499       .  S
C493        C494   1.538       .  S
C493        C499   1.541       .  S
C493        C497   1.533       .  S
C493        C578   1.510       .  S
C494        H501   1.086       .  S
C494        C495   1.369       .  D
C495        C496   1.536       .  S
C495        C557   1.484       .  S
C496        C500   1.539       .  S
C496        C498   1.534       .  S
C496        H502   1.112       .  S
C497        H503   1.086       .  S
C497        C498   1.362       .  D
C498        C553   1.476       .  S
C499        H504   1.085       .  S
C499        C500   1.371       .  D
C500        C649   1.488       .  S
C505        C506   1.545       .  S
C505        C511   1.549       .  S
C505        C509   1.532       .  S
C505        C582   1.521       .  S
C506        H513   1.086       .  S
C506        C507   1.369       .  D
C507        C508   1.529       .  S
C507        C546   1.478       .  S
C508        C512   1.529       .  S
C508        C510   1.528       .  S
C508        H514   1.112       .  S
C509        H515   1.086       .  S
C509        C510   1.362       .  D
C510        C549   1.473       .  S
C511        H516   1.085       .  S
C511        C512   1.377       .  D
C512        C670   1.489       .  S
O517        C527   1.275       .  A
O517      Cu1869   1.987       .  S
O518        C528   1.277       .  A
O518       Cu525   2.011       .  S
O519        C529   1.279       .  A
O519      Cu1869   2.004       .  S
O520        C530   1.279       .  A
O520       Cu525   2.018       .  S
O521        C530   1.276       .  A
O521      Cu1870   1.998   1_455  S
O522        C529   1.277       .  A
O522       Cu526   2.014       .  S
O523        C528   1.279       .  A
O523      Cu1870   2.009   1_455  S
O524        C527   1.278       .  A
O524       Cu526   2.015       .  S
Cu525      O1861   2.013   1_455  S
Cu525      O1863   2.011   1_455  S
Cu525     Cu1870   2.374   1_455  S
Cu526      O1865   2.009       .  S
Cu526      O1867   2.003       .  S
Cu526     Cu1869   2.376       .  S
C527        C554   1.469       .  S
C528        C565   1.476       .  S
C529        C545   1.477       .  S
C530        C562   1.473       .  S
O531        C541   1.278       .  A
O531       Cu539   2.013       .  S
O532        C542   1.279       .  A
O532       Cu539   2.017       .  S
O533        C543   1.277       .  A
O533       Cu539   1.997       .  S
O534        C544   1.275       .  A
O534       Cu539   1.990       .  S
O535        C544   1.276       .  A
O535       Cu540   1.992       .  S
O536        C543   1.276       .  A
O536       Cu540   1.998       .  S
O537        C542   1.277       .  A
O537       Cu540   2.010       .  S
O538        C541   1.278       .  A
O538       Cu540   2.009       .  S
Cu539      Cu540   2.378       .  S
C541        C586   1.474       .  S
C542        C558   1.477       .  S
C543        C550   1.465       .  S
C544        C594   1.457       .  S
C545        H547   1.086       .  S
C545        C546   1.341       .  D
C546        H548   1.086       .  S
C549        H551   1.086       .  S
C549        C550   1.341       .  D
C550        H552   1.086       .  S
C553        H555   1.087       .  S
C553        C554   1.345       .  D
C554        H556   1.086       .  S
C557        H559   1.085       .  S
C557        C558   1.344       .  D
C558        H560   1.086       .  S
C561        H563   1.086       .  S
C561        C562   1.347       .  D
C562        H564   1.086       .  S
C565        H567   1.087       .  S
C565        C566   1.343       .  D
C566        H568   1.087       .  S
C569        H571   1.087       .  S
C569        C570   1.338       .  D
C570        H572   1.085       .  S
C573        H575   1.086       .  S
C573        C574   1.341       .  D
C574        H576   1.086       .  S
C577        H579   1.086       .  S
C577        C578   1.347       .  D
C578        H580   1.086       .  S
C581        H583   1.086       .  S
C581        C582   1.341       .  D
C582        H584   1.086       .  S
C585        H587   1.086       .  S
C585        C586   1.345       .  D
C586        H588   1.086       .  S
C589        H591   1.087       .  S
C589        C590   1.341       .  D
C590        H592   1.086       .  S
C593        H595   1.088       .  S
C593        C594   1.343       .  D
C594        H596   1.089       .  S
C597        H599   1.087       .  S
C597        C598   1.340       .  D
C598        H600   1.085       .  S
C601        H603   1.086       .  S
C601        C602   1.339       .  D
C602        H604   1.086       .  S
C605        H607   1.086       .  S
C605        C606   1.346       .  D
C606        H608   1.086       .  S
C609        H611   1.087       .  S
C609        C610   1.343       .  D
C610        H612   1.085       .  S
C613        H615   1.088       .  S
C613        C614   1.348       .  D
C614        H616   1.085       .  S
C617        H619   1.086       .  S
C617        C618   1.340       .  D
C618        H620   1.087       .  S
C621        H623   1.086       .  S
C621        C622   1.338       .  D
C622        H624   1.086       .  S
C625        H627   1.087       .  S
C625        C626   1.339       .  D
C626        H628   1.086       .  S
C629        H631   1.087       .  S
C629        C630   1.347       .  D
C630        H632   1.086       .  S
C633        H635   1.086       .  S
C633        C634   1.343       .  D
C634        H636   1.086       .  S
C637        H639   1.086       .  S
C637        C638   1.342       .  D
C638        H640   1.086       .  S
C641        H643   1.083       .  S
C641        C642   1.350       .  D
C642        H644   1.086       .  S
C645        H647   1.087       .  S
C645        C646   1.333       .  D
C646        H648   1.085       .  S
C649        H651   1.086       .  S
C649        C650   1.349       .  D
C650        H652   1.085       .  S
C653        H655   1.086       .  S
C653        C654   1.351       .  D
C654        H656   1.084       .  S
C657        H659   1.087       .  S
C657        C658   1.337       .  D
C658        H660   1.084       .  S
C661        H663   1.087       .  S
C661        C662   1.348       .  D
C662        H664   1.082       .  S
C665        H667   1.085       .  S
C665        C666   1.338       .  D
C666        H668   1.087       .  S
C669        H671   1.085       .  S
C669        C670   1.340       .  D
C670        H672   1.087       .  S
O673        C683   1.280       .  A
O674        C684   1.272       .  A
O674      Cu2025   1.982       .  S
O675        C685   1.279       .  A
O675      Cu1353   2.021       .  S
O676        C686   1.277       .  A
O676       Cu681   2.010   1_455  S
O677        C686   1.279       .  A
O677      Cu1354   2.018       .  S
O678        C685   1.279       .  A
O678       Cu682   2.021   1_565  S
O679        C684   1.283       .  A
O680        C683   1.276       .  A
O680      Cu2026   2.001   1_465  S
Cu681      O2018   2.030       .  S
Cu681      O1347   2.024       .  S
Cu681     Cu1354   2.372   1_655  S
Cu682      O1349   2.027       .  S
Cu682      O2024   2.010   1_545  S
Cu682     Cu1353   2.372   1_545  S
C683        C998   1.475       .  S
C684       C1005   1.474       .  S
C685       C1001   1.483       .  S
C686        C994   1.478       .  S
O687        C697   1.279       .  A
O687       Cu695   2.023       .  S
O688        C698   1.277       .  A
O688      Cu1367   2.019       .  S
O689        C699   1.281       .  A
O689      Cu2039   2.019       .  S
O690        C700   1.280       .  A
O691        C700   1.277       .  A
O691       Cu696   2.001       .  S
O692        C699   1.274       .  A
O692      Cu1368   1.995   1_565  S
O693        C698   1.282       .  A
O693      Cu2040   2.037       .  S
O694        C697   1.279       .  A
Cu695      O1360   2.011   1_565  S
Cu695      O2033   2.013       .  S
Cu696      O1364   1.994       .  S
Cu696      O2037   2.040       .  S
C697        C990   1.484       .  S
C698        C982   1.490       .  S
C699        C977   1.474       .  S
C700        C986   1.484       .  S
O701        C711   1.278       .  A
O701       Cu709   2.015       .  S
O702        C712   1.279       .  A
O702      Cu1045   2.018   1_554  S
O703        C713   1.276       .  A
O703       Cu709   2.001       .  S
O704        C714   1.276       .  A
O704      Cu1045   1.989   1_554  S
O705        C714   1.276       .  A
O705      Cu1046   2.005   1_554  S
O706        C713   1.277       .  A
O706       Cu710   2.003       .  S
O707        C712   1.280       .  A
O707      Cu1046   2.028   1_554  S
O708        C711   1.277       .  A
O708       Cu710   2.009       .  S
Cu709      O1038   2.012       .  S
Cu709      O1040   2.007       .  S
Cu709      Cu710   2.376       .  S
Cu710      O1041   2.005       .  S
Cu710      O1043   2.014       .  S
C711        C973   1.475       .  S
C712        C965   1.483       .  S
C713        C961   1.467       .  S
C714        C969   1.464       .  S
C715        C716   1.534       .  S
C715        C721   1.535       .  S
C715        C719   1.531       .  S
C715        C949   1.511       .  S
C716        H723   1.086       .  S
C716        C717   1.370       .  D
C717        C718   1.545       .  S
C717        C957   1.483       .  S
C718        C722   1.546       .  S
C718        C720   1.544       .  S
C718        H724   1.111       .  S
C719        H725   1.087       .  S
C719        C720   1.356       .  D
C720        C953   1.477       .  S
C721        H726   1.084       .  S
C721        C722   1.370       .  D
C722       C1002   1.496       .  S
C727        C728   1.529       .  S
C727        C733   1.535       .  S
C727        C731   1.532       .  S
C727        C937   1.513       .  S
C728        H735   1.085       .  S
C728        C729   1.366       .  D
C729        C730   1.541       .  S
C729        C941   1.480       .  S
C730        C734   1.548       .  S
C730        C732   1.548       .  S
C730        H736   1.111       .  S
C731        H737   1.087       .  S
C731        C732   1.362       .  D
C732        C945   1.488       .  S
C733        H738   1.084       .  S
C733        C734   1.375       .  D
C734        C989   1.497       .  S
C739        C740   1.526       .  S
C739        C745   1.533       .  S
C739        C743   1.539       .  S
C739        C929   1.513       .  S
C740        H747   1.087       .  S
C740        C741   1.354       .  D
C741        C742   1.549       .  S
C741        C933   1.474       .  S
C742        C746   1.553       .  S
C742        C744   1.545       .  S
C742        H748   1.108       .  S
C743        H749   1.085       .  S
C743        C744   1.374       .  D
C744        C966   1.490       .  S
C745        H750   1.086       .  S
C745        C746   1.366       .  D
C746        C981   1.498       .  S
C751        C752   1.528       .  S
C751        C757   1.535       .  S
C751        C755   1.539       .  S
C751        C921   1.509       .  S
C752        H759   1.086       .  S
C752        C753   1.364       .  D
C753        C754   1.535       .  S
C753        C962   1.476       .  S
C754        C758   1.546       .  S
C754        C756   1.535       .  S
C754        H760   1.108       .  S
C755        H761   1.086       .  S
C755        C756   1.368       .  D
C756        C925   1.480       .  S
C757        H762   1.086       .  S
C757        C758   1.367       .  D
C758        C993   1.488       .  S
O763        C773   1.285       .  A
O763      Cu1107   2.037       .  S
O764        C774   1.275       .  A
O765        C775   1.277       .  A
O765       Cu771   2.012       .  S
O766        C776   1.277       .  A
O767        C776   1.276       .  A
O767      Cu1108   2.001       .  S
O768        C775   1.278       .  A
O769        C774   1.281       .  A
O769       Cu772   2.019       .  S
O770        C773   1.270       .  A
Cu771      O1099   2.010       .  S
Cu772      O1103   2.012       .  S
C773        C934   1.473       .  S
C774        C954   1.478       .  S
C775        C926   1.475       .  S
C776        C942   1.467       .  S
O777        C787   1.278       .  A
O777      Cu1121   2.017   1_554  S
O778        C788   1.276       .  A
O778       Cu785   2.000       .  S
O779        C789   1.277       .  A
O779      Cu1121   2.019   1_554  S
O780        C790   1.282       .  A
O780       Cu785   2.026       .  S
O781        C790   1.274       .  A
O781       Cu786   1.998       .  S
O782        C789   1.281       .  A
O782      Cu1122   2.025       .  S
O783        C788   1.281       .  A
O783       Cu786   2.030       .  S
O784        C787   1.278       .  A
O784      Cu1122   2.008       .  S
Cu785      O1113   2.006       .  S
Cu785      O1115   2.030       .  S
Cu785      Cu786   2.374       .  S
Cu786      O1118   2.000       .  S
Cu786      O1120   2.014       .  S
C787        C913   1.478       .  S
C788        C958   1.478       .  S
C789        C946   1.486       .  S
C790        C917   1.476       .  S
O791        C801   1.273       .  A
O791       Cu799   1.995       .  S
O792        C802   1.275       .  A
O792       Cu799   1.989       .  S
O793        C803   1.281       .  A
O793       Cu799   2.036       .  S
O794        C804   1.282       .  A
O794       Cu799   2.038       .  S
O795        C804   1.274       .  A
O795       Cu800   1.991       .  S
O796        C803   1.276       .  A
O796       Cu800   1.990       .  S
O797        C802   1.279       .  A
O797       Cu800   2.019       .  S
O798        C801   1.282       .  A
O798       Cu800   2.024       .  S
Cu799      Cu800   2.374       .  S
C801        C906   1.474       .  S
C802        C950   1.466       .  S
C803        C938   1.481       .  S
C804        C909   1.475       .  S
C805        C806   1.536       .  S
C805        C811   1.534       .  S
C805        C809   1.536       .  S
C805        C974   1.514       .  S
C806        H813   1.085       .  S
C806        C807   1.368       .  D
C807        C808   1.536       .  S
C807        C902   1.482       .  S
C808        C812   1.545       .  S
C808        C810   1.538       .  S
C808        H814   1.108       .  S
C809        H815   1.086       .  S
C809        C810   1.370       .  D
C810        C910   1.487       .  S
C811        H816   1.086       .  S
C811        C812   1.364       .  D
C812        C997   1.486       .  S
C817        C818   1.527       .  S
C817        C823   1.526       .  S
C817        C821   1.534       .  S
C817        C970   1.501       .  S
C818        H825   1.086       .  S
C818        C819   1.363       .  D
C819        C820   1.550       .  S
C819        C905   1.481       .  S
C820        C824   1.550       .  S
C820        C822   1.536       .  S
C820        H826   1.107       .  S
C821        H827   1.086       .  S
C821        C822   1.366       .  D
C822        C897   1.480       .  S
C823        H828   1.087       .  S
C823        C824   1.362       .  D
C824        C978   1.482       .  S
C829        C830   1.536       .  S
C829        C835   1.541       .  S
C829        C833   1.539       .  S
C829        C914   1.512       .  S
C830        H837   1.086       .  S
C830        C831   1.365       .  D
C831        C832   1.536       .  S
C831        C893   1.482       .  S
C832        C836   1.538       .  S
C832        C834   1.535       .  S
C832        H838   1.112       .  S
C833        H839   1.086       .  S
C833        C834   1.367       .  D
C834        C889   1.483       .  S
C835        H840   1.084       .  S
C835        C836   1.371       .  D
C836        C985   1.488       .  S
C841        C842   1.527       .  S
C841        C847   1.537       .  S
C841        C845   1.543       .  S
C841        C918   1.512       .  S
C842        H849   1.086       .  S
C842        C843   1.360       .  D
C843        C844   1.531       .  S
C843        C882   1.472       .  S
C844        C848   1.533       .  S
C844        C846   1.535       .  S
C844        H850   1.112       .  S
C845        H851   1.086       .  S
C845        C846   1.372       .  D
C846        C885   1.481       .  S
C847        H852   1.083       .  S
C847        C848   1.375       .  D
C848       C1006   1.490       .  S
O853        C863   1.279       .  A
O853      Cu2205   2.012       .  S
O854        C864   1.277       .  A
O854       Cu861   2.008       .  S
O855        C865   1.276       .  A
O855      Cu2205   1.988       .  S
O856        C866   1.276       .  A
O856       Cu861   2.000       .  S
O857        C866   1.278       .  A
O857      Cu2206   2.009   1_455  S
O858        C865   1.276       .  A
O858       Cu862   1.997       .  S
O859        C864   1.278       .  A
O859      Cu2206   2.007   1_455  S
O860        C863   1.278       .  A
O860       Cu862   2.015       .  S
Cu861      O2197   1.998   1_455  S
Cu861      O2199   1.991   1_455  S
Cu861     Cu2206   2.377   1_455  S
Cu862      O2201   1.990       .  S
Cu862      O2203   2.012       .  S
Cu862     Cu2205   2.377       .  S
C863        C890   1.476       .  S
C864        C901   1.473       .  S
C865        C881   1.461       .  S
C866        C898   1.469       .  S
O867        C877   1.274       .  A
O867       Cu875   1.993       .  S
O868        C878   1.276       .  A
O868       Cu875   1.997       .  S
O869        C879   1.280       .  A
O869       Cu875   2.016       .  S
O870        C880   1.279       .  A
O870       Cu875   2.013       .  S
O871        C880   1.276       .  A
O871       Cu876   2.008       .  S
O872        C879   1.276       .  A
O872       Cu876   2.010       .  S
O873        C878   1.280       .  A
O873       Cu876   2.025       .  S
O874        C877   1.281       .  A
O874       Cu876   2.022       .  S
Cu875      Cu876   2.375       .  S
C877        C922   1.472       .  S
C878        C894   1.477       .  S
C879        C886   1.478       .  S
C880        C930   1.472       .  S
C881        H883   1.086       .  S
C881        C882   1.342       .  D
C882        H884   1.086       .  S
C885        H887   1.086       .  S
C885        C886   1.342       .  D
C886        H888   1.086       .  S
C889        H891   1.087       .  S
C889        C890   1.344       .  D
C890        H892   1.086       .  S
C893        H895   1.086       .  S
C893        C894   1.347       .  D
C894        H896   1.086       .  S
C897        H899   1.086       .  S
C897        C898   1.343       .  D
C898        H900   1.086       .  S
C901        H903   1.086       .  S
C901        C902   1.344       .  D
C902        H904   1.087       .  S
C905        H907   1.087       .  S
C905        C906   1.338       .  D
C906        H908   1.084       .  S
C909        H911   1.086       .  S
C909        C910   1.343       .  D
C910        H912   1.085       .  S
C913        H915   1.086       .  S
C913        C914   1.345       .  D
C914        H916   1.087       .  S
C917        H919   1.086       .  S
C917        C918   1.339       .  D
C918        H920   1.088       .  S
C921        H923   1.087       .  S
C921        C922   1.339       .  D
C922        H924   1.087       .  S
C925        H927   1.086       .  S
C925        C926   1.344       .  D
C926        H928   1.087       .  S
C929        H931   1.086       .  S
C929        C930   1.349       .  D
C930        H932   1.087       .  S
C933        H935   1.088       .  S
C933        C934   1.331       .  D
C934        H936   1.088       .  S
C937        H939   1.086       .  S
C937        C938   1.349       .  D
C938        H940   1.086       .  S
C941        H943   1.086       .  S
C941        C942   1.344       .  D
C942        H944   1.085       .  S
C945        H947   1.087       .  S
C945        C946   1.342       .  D
C946        H948   1.086       .  S
C949        H951   1.087       .  S
C949        C950   1.344       .  D
C950        H952   1.088       .  S
C953        H955   1.087       .  S
C953        C954   1.338       .  D
C954        H956   1.085       .  S
C957        H959   1.086       .  S
C957        C958   1.347       .  D
C958        H960   1.086       .  S
C961        H963   1.086       .  S
C961        C962   1.343       .  D
C962        H964   1.085       .  S
C965        H967   1.086       .  S
C965        C966   1.347       .  D
C966        H968   1.086       .  S
C969        H971   1.087       .  S
C969        C970   1.342       .  D
C970        H972   1.087       .  S
C973        H975   1.086       .  S
C973        C974   1.346       .  D
C974        H976   1.086       .  S
C977        H979   1.084       .  S
C977        C978   1.339       .  D
C978        H980   1.087       .  S
C981        H983   1.086       .  S
C981        C982   1.346       .  D
C982        H984   1.083       .  S
C985        H987   1.085       .  S
C985        C986   1.349       .  D
C986        H988   1.084       .  S
C989        H991   1.086       .  S
C989        C990   1.351       .  D
C990        H992   1.084       .  S
C993        H995   1.087       .  S
C993        C994   1.345       .  D
C994        H996   1.083       .  S
C997        H999   1.087       .  S
C997        C998   1.343       .  D
C998       H1000   1.083       .  S
C1001      H1003   1.084       .  S
C1001      C1002   1.351       .  D
C1002      H1004   1.086       .  S
C1005      H1007   1.083       .  S
C1005      C1006   1.340       .  D
C1006      H1008   1.086       .  S
O1009      C1019   1.276       .  A
O1010      C1020   1.271       .  A
O1010     Cu2361   1.976       .  S
O1011      C1021   1.285       .  A
O1011     Cu1689   2.053       .  S
O1012      C1022   1.282       .  A
O1012     Cu1017   2.025   1_455  S
O1013      C1022   1.272       .  A
O1013     Cu1690   1.982   1_455  S
O1014      C1021   1.272       .  A
O1014     Cu1018   1.986   1_565  S
O1015      C1020   1.284       .  A
O1016      C1019   1.281       .  A
O1016     Cu2362   2.032   1_465  S
Cu1017     O2354   1.986       .  S
Cu1017     O1683   2.021       .  S
Cu1017    Cu1690   2.375       .  S
Cu1018     O1685   1.989       .  S
Cu1018     O2360   2.030   1_545  S
Cu1018    Cu1689   2.372   1_545  S
C1019      C1334   1.482       .  S
C1020      C1341   1.472       .  S
C1021      C1337   1.482       .  S
C1022      C1330   1.471       .  S
O1023      C1033   1.279       .  A
O1023     Cu1031   2.012       .  S
O1024      C1034   1.275       .  A
O1024     Cu1703   2.002       .  S
O1025      C1035   1.286       .  A
O1025     Cu2375   2.063   1_455  S
O1026      C1036   1.281       .  A
O1027      C1036   1.277       .  A
O1027     Cu1032   2.005       .  S
O1028      C1035   1.269       .  A
O1028     Cu1704   1.966   1_465  S
O1029      C1034   1.281       .  A
O1029     Cu2376   2.021       .  S
O1030      C1033   1.278       .  A
Cu1031     O1696   2.012   1_565  S
Cu1031     O2369   2.030       .  S
Cu1032     O1700   2.003       .  S
Cu1032     O2373   2.022       .  S
C1033      C1326   1.482       .  S
C1034      C1318   1.477       .  S
C1035      C1313   1.475       .  S
C1036      C1322   1.484       .  S
O1037      C1047   1.279       .  A
O1037     Cu1045   2.017       .  S
O1038      C1048   1.278       .  A
O1039      C1049   1.275       .  A
O1039     Cu1045   1.995       .  S
O1040      C1050   1.277       .  A
O1041      C1050   1.277       .  A
O1042      C1049   1.278       .  A
O1042     Cu1046   2.010       .  S
O1043      C1048   1.278       .  A
O1044      C1047   1.279       .  A
O1044     Cu1046   2.022       .  S
Cu1045    Cu1046   2.375       .  S
C1047      C1309   1.482       .  S
C1048      C1301   1.476       .  S
C1049      C1297   1.468       .  S
C1050      C1305   1.470       .  S
C1051      C1052   1.538       .  S
C1051      C1057   1.544       .  S
C1051      C1055   1.536       .  S
C1051      C1285   1.520       .  S
C1052      H1059   1.086       .  S
C1052      C1053   1.365       .  D
C1053      C1054   1.532       .  S
C1053      C1293   1.477       .  S
C1054      C1058   1.532       .  S
C1054      C1056   1.535       .  S
C1054      H1060   1.112       .  S
C1055      H1061   1.086       .  S
C1055      C1056   1.366       .  D
C1056      C1289   1.477       .  S
C1057      H1062   1.084       .  S
C1057      C1058   1.378       .  D
C1058      C1338   1.494       .  S
C1063      C1064   1.532       .  S
C1063      C1069   1.540       .  S
C1063      C1067   1.538       .  S
C1063      C1273   1.510       .  S
C1064      H1071   1.087       .  S
C1064      C1065   1.361       .  D
C1065      C1066   1.536       .  S
C1065      C1277   1.475       .  S
C1066      C1070   1.537       .  S
C1066      C1068   1.537       .  S
C1066      H1072   1.111       .  S
C1067      H1073   1.085       .  S
C1067      C1068   1.370       .  D
C1068      C1281   1.487       .  S
C1069      H1074   1.084       .  S
C1069      C1070   1.372       .  D
C1070      C1325   1.488       .  S
C1075      C1076   1.533       .  S
C1075      C1081   1.529       .  S
C1075      C1079   1.534       .  S
C1075      C1265   1.506       .  S
C1076      H1083   1.086       .  S
C1076      C1077   1.366       .  D
C1077      C1078   1.538       .  S
C1077      C1269   1.481       .  S
C1078      C1082   1.548       .  S
C1078      C1080   1.541       .  S
C1078      H1084   1.109       .  S
C1079      H1085   1.086       .  S
C1079      C1080   1.369       .  D
C1080      C1302   1.484       .  S
C1081      H1086   1.087       .  S
C1081      C1082   1.362       .  D
C1082      C1317   1.485       .  S
C1087      C1088   1.531       .  S
C1087      C1093   1.538       .  S
C1087      C1091   1.538       .  S
C1087      C1257   1.513       .  S
C1088      H1095   1.086       .  S
C1088      C1089   1.364       .  D
C1089      C1090   1.534       .  S
C1089      C1298   1.479       .  S
C1090      C1094   1.531       .  S
C1090      C1092   1.530       .  S
C1090      H1096   1.112       .  S
C1091      H1097   1.086       .  S
C1091      C1092   1.369       .  D
C1092      C1261   1.478       .  S
C1093      H1098   1.084       .  S
C1093      C1094   1.375       .  D
C1094      C1329   1.482       .  S
O1099      C1109   1.278       .  A
O1100      C1110   1.277       .  A
O1101      C1111   1.271       .  A
O1101     Cu1107   1.977   1_556  S
O1102      C1112   1.276       .  A
O1103      C1112   1.277       .  A
O1104      C1111   1.282       .  A
O1105      C1110   1.277       .  A
O1105     Cu1108   2.012   1_556  S
O1106      C1109   1.277       .  A
C1109      C1270   1.472       .  S
C1110      C1290   1.471       .  S
C1111      C1262   1.466       .  S
C1112      C1278   1.467       .  S
O1113      C1123   1.276       .  A
O1114      C1124   1.278       .  A
O1114     Cu1121   2.010       .  S
O1115      C1125   1.281       .  A
O1116      C1126   1.280       .  A
O1116     Cu1121   2.018       .  S
O1117      C1126   1.278       .  A
O1117     Cu1122   2.020   1_556  S
O1118      C1125   1.275       .  A
O1119      C1124   1.276       .  A
O1119     Cu1122   2.005   1_556  S
O1120      C1123   1.279       .  A
Cu1121    Cu1122   2.373   1_556  S
C1123      C1249   1.474       .  S
C1124      C1294   1.470       .  S
C1125      C1282   1.476       .  S
C1126      C1253   1.484       .  S
O1127      C1137   1.280       .  A
O1127     Cu1135   2.031       .  S
O1128      C1138   1.279       .  A
O1128     Cu1135   2.027       .  S
O1129      C1139   1.278       .  A
O1129     Cu1135   2.015       .  S
O1130      C1140   1.279       .  A
O1130     Cu1135   2.020       .  S
O1131      C1140   1.276       .  A
O1131     Cu1136   2.000       .  S
O1132      C1139   1.277       .  A
O1132     Cu1136   2.000       .  S
O1133      C1138   1.279       .  A
O1133     Cu1136   2.018       .  S
O1134      C1137   1.279       .  A
O1134     Cu1136   2.018       .  S
Cu1135    Cu1136   2.373       .  S
C1137      C1242   1.484       .  S
C1138      C1286   1.485       .  S
C1139      C1274   1.473       .  S
C1140      C1245   1.473       .  S
C1141      C1142   1.535       .  S
C1141      C1147   1.536       .  S
C1141      C1145   1.534       .  S
C1141      C1310   1.517       .  S
C1142      H1149   1.086       .  S
C1142      C1143   1.368       .  D
C1143      C1144   1.534       .  S
C1143      C1238   1.477       .  S
C1144      C1148   1.543       .  S
C1144      C1146   1.537       .  S
C1144      H1150   1.108       .  S
C1145      H1151   1.086       .  S
C1145      C1146   1.368       .  D
C1146      C1246   1.483       .  S
C1147      H1152   1.086       .  S
C1147      C1148   1.370       .  D
C1148      C1333   1.489       .  S
C1153      C1154   1.536       .  S
C1153      C1159   1.534       .  S
C1153      C1157   1.534       .  S
C1153      C1306   1.510       .  S
C1154      H1161   1.086       .  S
C1154      C1155   1.370       .  D
C1155      C1156   1.542       .  S
C1155      C1241   1.491       .  S
C1156      C1160   1.554       .  S
C1156      C1158   1.537       .  S
C1156      H1162   1.108       .  S
C1157      H1163   1.085       .  S
C1157      C1158   1.364       .  D
C1158      C1233   1.482       .  S
C1159      H1164   1.086       .  S
C1159      C1160   1.363       .  D
C1160      C1314   1.493       .  S
C1165      C1166   1.535       .  S
C1165      C1171   1.539       .  S
C1165      C1169   1.535       .  S
C1165      C1250   1.510       .  S
C1166      H1173   1.086       .  S
C1166      C1167   1.367       .  D
C1167      C1168   1.537       .  S
C1167      C1229   1.482       .  S
C1168      C1172   1.541       .  S
C1168      C1170   1.536       .  S
C1168      H1174   1.111       .  S
C1169      H1175   1.086       .  S
C1169      C1170   1.364       .  D
C1170      C1225   1.477       .  S
C1171      H1176   1.084       .  S
C1171      C1172   1.371       .  D
C1172      C1321   1.492       .  S
C1177      C1178   1.533       .  S
C1177      C1183   1.543       .  S
C1177      C1181   1.549       .  S
C1177      C1254   1.520       .  S
C1178      H1185   1.086       .  S
C1178      C1179   1.362       .  D
C1179      C1180   1.528       .  S
C1179      C1218   1.472       .  S
C1180      C1184   1.524       .  S
C1180      C1182   1.529       .  S
C1180      H1186   1.112       .  S
C1181      H1187   1.083       .  S
C1181      C1182   1.372       .  D
C1182      C1221   1.475       .  S
C1183      H1188   1.084       .  S
C1183      C1184   1.374       .  D
C1184      C1342   1.483       .  S
O1189      C1199   1.275       .  A
O1189     Cu2541   1.984       .  S
O1190      C1200   1.276       .  A
O1190     Cu1197   2.000       .  S
O1191      C1201   1.277       .  A
O1191     Cu2541   1.991       .  S
O1192      C1202   1.277       .  A
O1192     Cu1197   2.009       .  S
O1193      C1202   1.277       .  A
O1193     Cu2542   2.003   1_455  S
O1194      C1201   1.276       .  A
O1194     Cu1198   2.005       .  S
O1195      C1200   1.278       .  A
O1195     Cu2542   2.005   1_455  S
O1196      C1199   1.279       .  A
O1196     Cu1198   2.021       .  S
Cu1197     O2533   1.993   1_455  S
Cu1197     O2535   2.000   1_455  S
Cu1197    Cu2542   2.377   1_455  S
Cu1198     O2537   2.003       .  S
Cu1198     O2539   2.014       .  S
Cu1198    Cu2541   2.377       .  S
C1199      C1226   1.471       .  S
C1200      C1237   1.469       .  S
C1201      C1217   1.466       .  S
C1202      C1234   1.471       .  S
O1203      C1213   1.276       .  A
O1203     Cu1211   2.009       .  S
O1204      C1214   1.278       .  A
O1204     Cu1211   2.010       .  S
O1205      C1215   1.280       .  A
O1205     Cu1211   2.015       .  S
O1206      C1216   1.278       .  A
O1206     Cu1211   2.010       .  S
O1207      C1216   1.276       .  A
O1207     Cu1212   1.996       .  S
O1208      C1215   1.275       .  A
O1208     Cu1212   2.002       .  S
O1209      C1214   1.279       .  A
O1209     Cu1212   2.017       .  S
O1210      C1213   1.280       .  A
O1210     Cu1212   2.015       .  S
Cu1211    Cu1212   2.375       .  S
C1213      C1258   1.477       .  S
C1214      C1230   1.476       .  S
C1215      C1222   1.474       .  S
C1216      C1266   1.469       .  S
C1217      H1219   1.086       .  S
C1217      C1218   1.341       .  D
C1218      H1220   1.087       .  S
C1221      H1223   1.087       .  S
C1221      C1222   1.338       .  D
C1222      H1224   1.087       .  S
C1225      H1227   1.086       .  S
C1225      C1226   1.346       .  D
C1226      H1228   1.086       .  S
C1229      H1231   1.085       .  S
C1229      C1230   1.346       .  D
C1230      H1232   1.086       .  S
C1233      H1235   1.086       .  S
C1233      C1234   1.346       .  D
C1234      H1236   1.085       .  S
C1237      H1239   1.086       .  S
C1237      C1238   1.341       .  D
C1238      H1240   1.087       .  S
C1241      H1243   1.086       .  S
C1241      C1242   1.348       .  D
C1242      H1244   1.086       .  S
C1245      H1247   1.086       .  S
C1245      C1246   1.344       .  D
C1246      H1248   1.086       .  S
C1249      H1251   1.087       .  S
C1249      C1250   1.344       .  D
C1250      H1252   1.086       .  S
C1253      H1255   1.082       .  S
C1253      C1254   1.346       .  D
C1254      H1256   1.087       .  S
C1257      H1259   1.087       .  S
C1257      C1258   1.343       .  D
C1258      H1260   1.086       .  S
C1261      H1263   1.086       .  S
C1261      C1262   1.336       .  D
C1262      H1264   1.086       .  S
C1265      H1267   1.087       .  S
C1265      C1266   1.345       .  D
C1266      H1268   1.086       .  S
C1269      H1271   1.086       .  S
C1269      C1270   1.346       .  D
C1270      H1272   1.086       .  S
C1273      H1275   1.086       .  S
C1273      C1274   1.347       .  D
C1274      H1276   1.086       .  S
C1277      H1279   1.087       .  S
C1277      C1278   1.344       .  D
C1278      H1280   1.086       .  S
C1281      H1283   1.086       .  S
C1281      C1282   1.343       .  D
C1282      H1284   1.086       .  S
C1285      H1287   1.086       .  S
C1285      C1286   1.348       .  D
C1286      H1288   1.086       .  S
C1289      H1291   1.086       .  S
C1289      C1290   1.343       .  D
C1290      H1292   1.086       .  S
C1293      H1295   1.087       .  S
C1293      C1294   1.341       .  D
C1294      H1296   1.087       .  S
C1297      H1299   1.086       .  S
C1297      C1298   1.343       .  D
C1298      H1300   1.086       .  S
C1301      H1303   1.086       .  S
C1301      C1302   1.346       .  D
C1302      H1304   1.086       .  S
C1305      H1307   1.087       .  S
C1305      C1306   1.345       .  D
C1306      H1308   1.086       .  S
C1309      H1311   1.086       .  S
C1309      C1310   1.347       .  D
C1310      H1312   1.086       .  S
C1313      H1315   1.083       .  S
C1313      C1314   1.339       .  D
C1314      H1316   1.087       .  S
C1317      H1319   1.087       .  S
C1317      C1318   1.341       .  D
C1318      H1320   1.084       .  S
C1321      H1323   1.086       .  S
C1321      C1322   1.350       .  D
C1322      H1324   1.083       .  S
C1325      H1327   1.086       .  S
C1325      C1326   1.347       .  D
C1326      H1328   1.083       .  S
C1329      H1331   1.086       .  S
C1329      C1330   1.338       .  D
C1330      H1332   1.084       .  S
C1333      H1335   1.087       .  S
C1333      C1334   1.350       .  D
C1334      H1336   1.084       .  S
C1337      H1339   1.084       .  S
C1337      C1338   1.341       .  D
C1338      H1340   1.087       .  S
C1341      H1343   1.085       .  S
C1341      C1342   1.336       .  D
C1342      H1344   1.087       .  S
O1345      C1355   1.272       .  A
O1345     Cu2025   1.987       .  S
O1346      C1356   1.277       .  A
O1347      C1357   1.280       .  A
O1348      C1358   1.278       .  A
O1348     Cu1353   2.015   1_545  S
O1349      C1358   1.280       .  A
O1350      C1357   1.279       .  A
O1350     Cu1354   2.022   1_655  S
O1351      C1356   1.278       .  A
O1351     Cu2026   1.998       .  S
O1352      C1355   1.283       .  A
Cu1353     O2017   2.024       .  S
Cu1354     O2023   1.998   1_455  S
C1355      C1670   1.477       .  S
C1356      C1677   1.479       .  S
C1357      C1673   1.486       .  S
C1358      C1666   1.484       .  S
O1359      C1369   1.278       .  A
O1359     Cu1367   2.023   1_655  S
O1360      C1370   1.277       .  A
O1361      C1371   1.282       .  A
O1362      C1372   1.279       .  A
O1362     Cu2039   2.022   1_645  S
O1363      C1372   1.276       .  A
O1363     Cu1368   1.991   1_655  S
O1364      C1371   1.274       .  A
O1365      C1370   1.281       .  A
O1366      C1369   1.282       .  A
O1366     Cu2040   2.032   1_655  S
Cu1367     O2034   2.040   1_455  S
Cu1367    Cu2040   2.370       .  S
Cu1368     O2038   2.021   1_445  S
Cu1368    Cu2039   2.374   1_545  S
C1369      C1662   1.487       .  S
C1370      C1654   1.481       .  S
C1371      C1649   1.476       .  S
C1372      C1658   1.476       .  S
O1373      C1383   1.279       .  A
O1373     Cu1381   2.018       .  S
O1374      C1384   1.274       .  A
O1374     Cu1717   1.990       .  S
O1375      C1385   1.278       .  A
O1375     Cu1381   2.014       .  S
O1376      C1386   1.279       .  A
O1376     Cu1717   2.014       .  S
O1377      C1386   1.273       .  A
O1377     Cu1718   1.985       .  S
O1378      C1385   1.277       .  A
O1378     Cu1382   2.008       .  S
O1379      C1384   1.282       .  A
O1379     Cu1718   2.039       .  S
O1380      C1383   1.279       .  A
O1380     Cu1382   2.020       .  S
Cu1381     O1710   2.011       .  S
Cu1381     O1712   2.012       .  S
Cu1381    Cu1382   2.374       .  S
Cu1382     O1713   2.004       .  S
Cu1382     O1715   2.019       .  S
C1383      C1645   1.482       .  S
C1384      C1637   1.473       .  S
C1385      C1633   1.474       .  S
C1386      C1641   1.464       .  S
C1387      C1388   1.535       .  S
C1387      C1393   1.540       .  S
C1387      C1391   1.534       .  S
C1387      C1621   1.513       .  S
C1388      H1395   1.086       .  S
C1388      C1389   1.364       .  D
C1389      C1390   1.534       .  S
C1389      C1629   1.475       .  S
C1390      C1394   1.542       .  S
C1390      C1392   1.541       .  S
C1390      H1396   1.110       .  S
C1391      H1397   1.087       .  S
C1391      C1392   1.361       .  D
C1392      C1625   1.477       .  S
C1393      H1398   1.084       .  S
C1393      C1394   1.375       .  D
C1394      C1674   1.495       .  S
C1399      C1400   1.531       .  S
C1399      C1405   1.530       .  S
C1399      C1403   1.534       .  S
C1399      C1609   1.506       .  S
C1400      H1407   1.087       .  S
C1400      C1401   1.362       .  D
C1401      C1402   1.543       .  S
C1401      C1613   1.479       .  S
C1402      C1406   1.555       .  S
C1402      C1404   1.551       .  S
C1402      H1408   1.111       .  S
C1403      H1409   1.087       .  S
C1403      C1404   1.363       .  D
C1404      C1617   1.488       .  S
C1405      H1410   1.082       .  S
C1405      C1406   1.371       .  D
C1406      C1661   1.503       .  S
C1411      C1412   1.526       .  S
C1411      C1417   1.533       .  S
C1411      C1415   1.534       .  S
C1411      C1601   1.509       .  S
C1412      H1419   1.087       .  S
C1412      C1413   1.354       .  D
C1413      C1414   1.546       .  S
C1413      C1605   1.476       .  S
C1414      C1418   1.551       .  S
C1414      C1416   1.544       .  S
C1414      H1420   1.107       .  S
C1415      H1421   1.085       .  S
C1415      C1416   1.373       .  D
C1416      C1638   1.487       .  S
C1417      H1422   1.087       .  S
C1417      C1418   1.367       .  D
C1418      C1653   1.491       .  S
C1423      C1424   1.531       .  S
C1423      C1429   1.538       .  S
C1423      C1427   1.536       .  S
C1423      C1593   1.517       .  S
C1424      H1431   1.086       .  S
C1424      C1425   1.365       .  D
C1425      C1426   1.540       .  S
C1425      C1634   1.484       .  S
C1426      C1430   1.548       .  S
C1426      C1428   1.538       .  S
C1426      H1432   1.107       .  S
C1427      H1433   1.086       .  S
C1427      C1428   1.366       .  D
C1428      C1597   1.482       .  S
C1429      H1434   1.086       .  S
C1429      C1430   1.371       .  D
C1430      C1665   1.496       .  S
O1435      C1445   1.282       .  A
O1435     Cu1779   2.023       .  S
O1436      C1446   1.276       .  A
O1436     Cu2115   2.006       .  S
O1437      C1447   1.277       .  A
O1437     Cu1443   2.008       .  S
O1438      C1448   1.272       .  A
O1438     Cu2451   1.974       .  S
O1439      C1448   1.283       .  A
O1439     Cu1780   2.040   1_554  S
O1440      C1447   1.278       .  A
O1440     Cu2116   2.013   1_545  S
O1441      C1446   1.279       .  A
O1441     Cu1444   2.006       .  S
O1442      C1445   1.274       .  A
O1442     Cu2452   2.002   1_545  S
Cu1443     O1771   2.011       .  S
Cu1443     O2108   2.003   1_545  S
Cu1443     O2446   2.002   1_545  S
Cu1443    Cu2116   2.375   1_545  S
Cu1444     O1775   2.010       .  S
Cu1444     O2112   1.994       .  S
Cu1444     O2450   2.006       .  S
Cu1444    Cu2115   2.377       .  S
C1445      C1606   1.480       .  S
C1446      C1626   1.472       .  S
C1447      C1598   1.472       .  S
C1448      C1614   1.473       .  S
O1449      C1459   1.285       .  A
O1449     Cu1793   2.037       .  S
O1450      C1460   1.275       .  A
O1450     Cu1457   1.987       .  S
O1451      C1461   1.273       .  A
O1451     Cu1793   1.994       .  S
O1452      C1462   1.282       .  A
O1452     Cu1457   2.031       .  S
O1453      C1462   1.275       .  A
O1453     Cu1458   1.998       .  S
O1454      C1461   1.285       .  A
O1454     Cu1794   2.052       .  S
O1455      C1460   1.280       .  A
O1455     Cu1458   2.025       .  S
O1456      C1459   1.271       .  A
O1456     Cu1794   1.982       .  S
Cu1457     O1785   1.983       .  S
Cu1457     O1787   2.032       .  S
Cu1457    Cu1458   2.375       .  S
Cu1458     O1790   1.993       .  S
Cu1458     O1792   2.021       .  S
C1459      C1585   1.476       .  S
C1460      C1630   1.473       .  S
C1461      C1618   1.482       .  S
C1462      C1589   1.478       .  S
O1463      C1473   1.277       .  A
O1463     Cu1471   2.005       .  S
O1464      C1474   1.276       .  A
O1464     Cu1471   2.007       .  S
O1465      C1475   1.278       .  A
O1465     Cu1471   2.013       .  S
O1466      C1476   1.280       .  A
O1466     Cu1471   2.025       .  S
O1467      C1476   1.274       .  A
O1467     Cu1472   1.992       .  S
O1468      C1475   1.273       .  A
O1468     Cu1472   1.986       .  S
O1469      C1474   1.279       .  A
O1469     Cu1472   2.015       .  S
O1470      C1473   1.279       .  A
O1470     Cu1472   2.016       .  S
Cu1471    Cu1472   2.377       .  S
C1473      C1578   1.475       .  S
C1474      C1622   1.476       .  S
C1475      C1610   1.456       .  S
C1476      C1581   1.472       .  S
C1477      C1478   1.536       .  S
C1477      C1483   1.543       .  S
C1477      C1481   1.538       .  S
C1477      C1646   1.520       .  S
C1478      H1485   1.086       .  S
C1478      C1479   1.365       .  D
C1479      C1480   1.530       .  S
C1479      C1574   1.475       .  S
C1480      C1484   1.531       .  S
C1480      C1482   1.532       .  S
C1480      H1486   1.112       .  S
C1481      H1487   1.086       .  S
C1481      C1482   1.369       .  D
C1482      C1582   1.482       .  S
C1483      H1488   1.084       .  S
C1483      C1484   1.376       .  D
C1484      C1669   1.486       .  S
C1489      C1490   1.534       .  S
C1489      C1495   1.529       .  S
C1489      C1493   1.536       .  S
C1489      C1642   1.507       .  S
C1490      H1497   1.086       .  S
C1490      C1491   1.370       .  D
C1491      C1492   1.539       .  S
C1491      C1577   1.480       .  S
C1492      C1496   1.549       .  S
C1492      C1494   1.538       .  S
C1492      H1498   1.108       .  S
C1493      H1499   1.086       .  S
C1493      C1494   1.366       .  D
C1494      C1569   1.482       .  S
C1495      H1500   1.087       .  S
C1495      C1496   1.360       .  D
C1496      C1650   1.484       .  S
C1501      C1502   1.555       .  S
C1501      C1507   1.532       .  S
C1501      C1505   1.525       .  S
C1501      C1586   1.512       .  S
C1502      H1509   1.084       .  S
C1502      C1503   1.376       .  D
C1503      C1504   1.537       .  S
C1503      C1565   1.489       .  S
C1504      C1508   1.538       .  S
C1504      C1506   1.534       .  S
C1504      H1510   1.112       .  S
C1505      H1511   1.087       .  S
C1505      C1506   1.359       .  D
C1506      C1561   1.476       .  S
C1507      H1512   1.084       .  S
C1507      C1508   1.366       .  D
C1508      C1657   1.483       .  S
C1513      C1514   1.532       .  S
C1513      C1519   1.541       .  S
C1513      C1517   1.550       .  S
C1513      C1590   1.520       .  S
C1514      H1521   1.086       .  S
C1514      C1515   1.364       .  D
C1515      C1516   1.531       .  S
C1515      C1554   1.478       .  S
C1516      C1520   1.532       .  S
C1516      C1518   1.532       .  S
C1516      H1522   1.112       .  S
C1517      H1523   1.083       .  S
C1517      C1518   1.370       .  D
C1518      C1557   1.483       .  S
C1519      H1524   1.084       .  S
C1519      C1520   1.370       .  D
C1520      C1678   1.482       .  S
O1525      C1535   1.275       .  A
O1526      C1536   1.275       .  A
O1526     Cu1533   1.997       .  S
O1527      C1537   1.278       .  A
O1528      C1538   1.279       .  A
O1528     Cu1533   2.017       .  S
O1529      C1538   1.277       .  A
O1530      C1537   1.276       .  A
O1530     Cu1534   2.000       .  S
O1531      C1536   1.278       .  A
O1532      C1535   1.278       .  A
O1532     Cu1534   2.008       .  S
C1535      C1562   1.464       .  S
C1536      C1573   1.467       .  S
C1537      C1553   1.468       .  S
C1538      C1570   1.474       .  S
O1539      C1549   1.277       .  A
O1539     Cu1547   2.010       .  S
O1540      C1550   1.279       .  A
O1540     Cu1547   2.018       .  S
O1541      C1551   1.280       .  A
O1541     Cu1547   2.017       .  S
O1542      C1552   1.277       .  A
O1542     Cu1547   2.005       .  S
O1543      C1552   1.277       .  A
O1543     Cu1548   2.004       .  S
O1544      C1551   1.277       .  A
O1544     Cu1548   2.011       .  S
O1545      C1550   1.280       .  A
O1545     Cu1548   2.035       .  S
O1546      C1549   1.280       .  A
O1546     Cu1548   2.023       .  S
Cu1547    Cu1548   2.373       .  S
C1549      C1594   1.479       .  S
C1550      C1566   1.489       .  S
C1551      C1558   1.478       .  S
C1552      C1602   1.469       .  S
C1553      H1555   1.086       .  S
C1553      C1554   1.342       .  D
C1554      H1556   1.086       .  S
C1557      H1559   1.086       .  S
C1557      C1558   1.343       .  D
C1558      H1560   1.086       .  S
C1561      H1563   1.086       .  S
C1561      C1562   1.345       .  D
C1562      H1564   1.086       .  S
C1565      H1567   1.086       .  S
C1565      C1566   1.348       .  D
C1566      H1568   1.086       .  S
C1569      H1571   1.086       .  S
C1569      C1570   1.346       .  D
C1570      H1572   1.086       .  S
C1573      H1575   1.086       .  S
C1573      C1574   1.340       .  D
C1574      H1576   1.087       .  S
C1577      H1579   1.085       .  S
C1577      C1578   1.345       .  D
C1578      H1580   1.086       .  S
C1581      H1583   1.086       .  S
C1581      C1582   1.341       .  D
C1582      H1584   1.086       .  S
C1585      H1587   1.084       .  S
C1585      C1586   1.335       .  D
C1586      H1588   1.088       .  S
C1589      H1591   1.082       .  S
C1589      C1590   1.343       .  D
C1590      H1592   1.088       .  S
C1593      H1595   1.086       .  S
C1593      C1594   1.344       .  D
C1594      H1596   1.086       .  S
C1597      H1599   1.086       .  S
C1597      C1598   1.344       .  D
C1598      H1600   1.086       .  S
C1601      H1603   1.086       .  S
C1601      C1602   1.346       .  D
C1602      H1604   1.087       .  S
C1605      H1607   1.086       .  S
C1605      C1606   1.338       .  D
C1606      H1608   1.086       .  S
C1609      H1611   1.087       .  S
C1609      C1610   1.337       .  D
C1610      H1612   1.086       .  S
C1613      H1615   1.086       .  S
C1613      C1614   1.351       .  D
C1614      H1616   1.086       .  S
C1617      H1619   1.087       .  S
C1617      C1618   1.337       .  D
C1618      H1620   1.087       .  S
C1621      H1623   1.087       .  S
C1621      C1622   1.344       .  D
C1622      H1624   1.087       .  S
C1625      H1627   1.088       .  S
C1625      C1626   1.340       .  D
C1626      H1628   1.086       .  S
C1629      H1631   1.086       .  S
C1629      C1630   1.346       .  D
C1630      H1632   1.086       .  S
C1633      H1635   1.086       .  S
C1633      C1634   1.347       .  D
C1634      H1636   1.086       .  S
C1637      H1639   1.086       .  S
C1637      C1638   1.343       .  D
C1638      H1640   1.086       .  S
C1641      H1643   1.088       .  S
C1641      C1642   1.342       .  D
C1642      H1644   1.087       .  S
C1645      H1647   1.086       .  S
C1645      C1646   1.348       .  D
C1646      H1648   1.086       .  S
C1649      H1651   1.083       .  S
C1649      C1650   1.340       .  D
C1650      H1652   1.087       .  S
C1653      H1655   1.087       .  S
C1653      C1654   1.344       .  D
C1654      H1656   1.083       .  S
C1657      H1659   1.086       .  S
C1657      C1658   1.348       .  D
C1658      H1660   1.083       .  S
C1661      H1663   1.085       .  S
C1661      C1662   1.357       .  D
C1662      H1664   1.081       .  S
C1665      H1667   1.086       .  S
C1665      C1666   1.348       .  D
C1666      H1668   1.082       .  S
C1669      H1671   1.086       .  S
C1669      C1670   1.339       .  D
C1670      H1672   1.085       .  S
C1673      H1675   1.083       .  S
C1673      C1674   1.349       .  D
C1674      H1676   1.085       .  S
C1677      H1679   1.084       .  S
C1677      C1678   1.345       .  D
C1678      H1680   1.086       .  S
O1681      C1691   1.274       .  A
O1681     Cu2361   1.985       .  S
O1682      C1692   1.273       .  A
O1683      C1693   1.281       .  A
O1684      C1694   1.284       .  A
O1684     Cu1689   2.056   1_545  S
O1685      C1694   1.273       .  A
O1686      C1693   1.272       .  A
O1686     Cu1690   1.980       .  S
O1687      C1692   1.284       .  A
O1687     Cu2362   2.029       .  S
O1688      C1691   1.282       .  A
Cu1689     O2353   2.006       .  S
Cu1690     O2359   2.025       .  S
C1691      C2006   1.478       .  S
C1692      C2013   1.480       .  S
C1693      C2009   1.466       .  S
C1694      C2002   1.482       .  S
O1695      C1705   1.278       .  A
O1695     Cu1703   2.002   1_655  S
O1696      C1706   1.276       .  A
O1697      C1707   1.282       .  A
O1698      C1708   1.286       .  A
O1698     Cu2375   2.063   1_545  S
O1699      C1708   1.270       .  A
O1699     Cu1704   1.971       .  S
O1700      C1707   1.275       .  A
O1701      C1706   1.281       .  A
O1702      C1705   1.278       .  A
O1702     Cu2376   2.023   1_655  S
Cu1703     O2370   2.023   1_455  S
Cu1703    Cu2376   2.371       .  S
Cu1704     O2374   2.041   1_545  S
Cu1704    Cu2375   2.371   1_545  S
C1705      C1998   1.482       .  S
C1706      C1990   1.484       .  S
C1707      C1985   1.481       .  S
C1708      C1994   1.479       .  S
O1709      C1719   1.277       .  A
O1709     Cu1717   2.009   1_556  S
O1710      C1720   1.278       .  A
O1711      C1721   1.282       .  A
O1711     Cu1717   2.017   1_556  S
O1712      C1722   1.279       .  A
O1713      C1722   1.276       .  A
O1714      C1721   1.271       .  A
O1714     Cu1718   1.982   1_556  S
O1715      C1720   1.279       .  A
O1716      C1719   1.283       .  A
O1716     Cu1718   2.044   1_556  S
Cu1717    Cu1718   2.376       .  S
C1719      C1981   1.488       .  S
C1720      C1973   1.476       .  S
C1721      C1969   1.468       .  S
C1722      C1977   1.472       .  S
C1723      C1724   1.526       .  S
C1723      C1729   1.534       .  S
C1723      C1727   1.536       .  S
C1723      C1957   1.510       .  S
C1724      H1731   1.087       .  S
C1724      C1725   1.357       .  D
C1725      C1726   1.539       .  S
C1725      C1965   1.468       .  S
C1726      C1730   1.532       .  S
C1726      C1728   1.537       .  S
C1726      H1732   1.111       .  S
C1727      H1733   1.085       .  S
C1727      C1728   1.372       .  D
C1728      C1961   1.487       .  S
C1729      H1734   1.085       .  S
C1729      C1730   1.374       .  D
C1730      C2010   1.479       .  S
C1735      C1736   1.535       .  S
C1735      C1741   1.542       .  S
C1735      C1739   1.539       .  S
C1735      C1945   1.514       .  S
C1736      H1743   1.086       .  S
C1736      C1737   1.362       .  D
C1737      C1738   1.533       .  S
C1737      C1949   1.475       .  S
C1738      C1742   1.536       .  S
C1738      C1740   1.532       .  S
C1738      H1744   1.112       .  S
C1739      H1745   1.086       .  S
C1739      C1740   1.369       .  D
C1740      C1953   1.483       .  S
C1741      H1746   1.084       .  S
C1741      C1742   1.372       .  D
C1742      C1997   1.485       .  S
C1747      C1748   1.526       .  S
C1747      C1753   1.528       .  S
C1747      C1751   1.533       .  S
C1747      C1937   1.505       .  S
C1748      H1755   1.087       .  S
C1748      C1749   1.358       .  D
C1749      C1750   1.549       .  S
C1749      C1941   1.477       .  S
C1750      C1754   1.554       .  S
C1750      C1752   1.544       .  S
C1750      H1756   1.108       .  S
C1751      H1757   1.086       .  S
C1751      C1752   1.370       .  D
C1752      C1974   1.485       .  S
C1753      H1758   1.087       .  S
C1753      C1754   1.365       .  D
C1754      C1989   1.489       .  S
C1759      C1760   1.522       .  S
C1759      C1765   1.538       .  S
C1759      C1763   1.540       .  S
C1759      C1929   1.506       .  S
C1760      H1767   1.088       .  S
C1760      C1761   1.354       .  D
C1761      C1762   1.545       .  S
C1761      C1970   1.470       .  S
C1762      C1766   1.540       .  S
C1762      C1764   1.535       .  S
C1762      H1768   1.111       .  S
C1763      H1769   1.086       .  S
C1763      C1764   1.369       .  D
C1764      C1933   1.478       .  S
C1765      H1770   1.083       .  S
C1765      C1766   1.376       .  D
C1766      C2001   1.498       .  S
O1771      C1781   1.281       .  A
O1772      C1782   1.283       .  A
O1772     Cu2451   2.042   1_556  S
O1773      C1783   1.275       .  A
O1773     Cu1779   2.003   1_556  S
O1774      C1784   1.276       .  A
O1774     Cu2115   1.994       .  S
O1775      C1784   1.277       .  A
O1776      C1783   1.280       .  A
O1776     Cu2452   2.017   1_546  S
O1777      C1782   1.272       .  A
O1777     Cu1780   1.978       .  S
O1778      C1781   1.275   1_565  A
O1778     Cu2116   2.009       .  S
Cu1779     O2444   2.003   1_544  S
Cu1779     O2110   2.006   1_545  S
Cu1779    Cu2452   2.375   1_545  S
Cu1780     O2448   2.025       .  S
Cu1780     O2114   1.979   1_556  S
Cu1780    Cu2451   2.376   1_556  S
C1781      C1942   1.478       .  S
C1782      C1962   1.471       .  S
C1783      C1934   1.472       .  S
C1784      C1950   1.467       .  S
O1785      C1795   1.272       .  A
O1786      C1796   1.280       .  A
O1786     Cu1793   2.031   1_556  S
O1787      C1797   1.281       .  A
O1788      C1798   1.275       .  A
O1788     Cu1793   2.002   1_556  S
O1789      C1798   1.285       .  A
O1789     Cu1794   2.056   1_556  S
O1790      C1797   1.274       .  A
O1791      C1796   1.274       .  A
O1791     Cu1794   1.967   1_556  S
O1792      C1795   1.281       .  A
Cu1793    Cu1794   2.372       .  S
C1795      C1921   1.467       .  S
C1796      C1966   1.474       .  S
C1797      C1954   1.474       .  S
C1798      C1925   1.489       .  S
O1799      C1809   1.278       .  A
O1799     Cu1807   2.014       .  S
O1800      C1810   1.276       .  A
O1800     Cu1807   2.006       .  S
O1801      C1811   1.279       .  A
O1801     Cu1807   2.020       .  S
O1802      C1812   1.281       .  A
O1802     Cu1807   2.027       .  S
O1803      C1812   1.276       .  A
O1803     Cu1808   2.009       .  S
O1804      C1811   1.277       .  A
O1804     Cu1808   2.005       .  S
O1805      C1810   1.280       .  A
O1805     Cu1808   2.009       .  S
O1806      C1809   1.279       .  A
O1806     Cu1808   2.016       .  S
Cu1807    Cu1808   2.374       .  S
C1809      C1914   1.477       .  S
C1810      C1958   1.475       .  S
C1811      C1946   1.477       .  S
C1812      C1917   1.481       .  S
C1813      C1814   1.534       .  S
C1813      C1819   1.540       .  S
C1813      C1817   1.544       .  S
C1813      C1982   1.523       .  S
C1814      H1821   1.086       .  S
C1814      C1815   1.367       .  D
C1815      C1816   1.529       .  S
C1815      C1910   1.473       .  S
C1816      C1820   1.537       .  S
C1816      C1818   1.533       .  S
C1816      H1822   1.107       .  S
C1817      H1823   1.086       .  S
C1817      C1818   1.371       .  D
C1818      C1918   1.485       .  S
C1819      H1824   1.086       .  S
C1819      C1820   1.371       .  D
C1820      C2005   1.488       .  S
C1825      C1826   1.533       .  S
C1825      C1831   1.533       .  S
C1825      C1829   1.534       .  S
C1825      C1978   1.511       .  S
C1826      H1833   1.085       .  S
C1826      C1827   1.368       .  D
C1827      C1828   1.542       .  S
C1827      C1913   1.486       .  S
C1828      C1832   1.551       .  S
C1828      C1830   1.541       .  S
C1828      H1834   1.108       .  S
C1829      H1835   1.085       .  S
C1829      C1830   1.367       .  D
C1830      C1905   1.485       .  S
C1831      H1836   1.087       .  S
C1831      C1832   1.365       .  D
C1832      C1986   1.492       .  S
C1837      C1838   1.529       .  S
C1837      C1843   1.532       .  S
C1837      C1841   1.541       .  S
C1837      C1922   1.506       .  S
C1838      H1845   1.086       .  S
C1838      C1839   1.365       .  D
C1839      C1840   1.541       .  S
C1839      C1901   1.481       .  S
C1840      C1844   1.554       .  S
C1840      C1842   1.540       .  S
C1840      H1846   1.108       .  S
C1841      H1847   1.086       .  S
C1841      C1842   1.369       .  D
C1842      C1897   1.489       .  S
C1843      H1848   1.087       .  S
C1843      C1844   1.361       .  D
C1844      C1993   1.492       .  S
C1849      C1850   1.545       .  S
C1849      C1855   1.553       .  S
C1849      C1853   1.540       .  S
C1849      C1926   1.526       .  S
C1850      H1857   1.086       .  S
C1850      C1851   1.368       .  D
C1851      C1852   1.524       .  S
C1851      C1890   1.475       .  S
C1852      C1856   1.522       .  S
C1852      C1854   1.524       .  S
C1852      H1858   1.112       .  S
C1853      H1859   1.086       .  S
C1853      C1854   1.366       .  D
C1854      C1893   1.473       .  S
C1855      H1860   1.085       .  S
C1855      C1856   1.377       .  D
C1856      C2014   1.484       .  S
O1861      C1871   1.278       .  A
O1862      C1872   1.274       .  A
O1862     Cu1869   1.990       .  S
O1863      C1873   1.280       .  A
O1864      C1874   1.278       .  A
O1864     Cu1869   2.014       .  S
O1865      C1874   1.278       .  A
O1866      C1873   1.275       .  A
O1866     Cu1870   2.004       .  S
O1867      C1872   1.279       .  A
O1868      C1871   1.280       .  A
O1868     Cu1870   2.025       .  S
C1871      C1898   1.482       .  S
C1872      C1909   1.465       .  S
C1873      C1889   1.475       .  S
C1874      C1906   1.475       .  S
O1875      C1885   1.274       .  A
O1875     Cu1883   1.996       .  S
O1876      C1886   1.276       .  A
O1876     Cu1883   2.002       .  S
O1877      C1887   1.280       .  A
O1877     Cu1883   2.009       .  S
O1878      C1888   1.277       .  A
O1878     Cu1883   2.002       .  S
O1879      C1888   1.276       .  A
O1879     Cu1884   1.996       .  S
O1880      C1887   1.274       .  A
O1880     Cu1884   1.997       .  S
O1881      C1886   1.279       .  A
O1881     Cu1884   2.015       .  S
O1882      C1885   1.280       .  A
O1882     Cu1884   2.009       .  S
Cu1883    Cu1884   2.377       .  S
C1885      C1930   1.470       .  S
C1886      C1902   1.473       .  S
C1887      C1894   1.470       .  S
C1888      C1938   1.465       .  S
C1889      H1891   1.087       .  S
C1889      C1890   1.338       .  D
C1890      H1892   1.087       .  S
C1893      H1895   1.086       .  S
C1893      C1894   1.338       .  D
C1894      H1896   1.086       .  S
C1897      H1899   1.086       .  S
C1897      C1898   1.349       .  D
C1898      H1900   1.086       .  S
C1901      H1903   1.085       .  S
C1901      C1902   1.347       .  D
C1902      H1904   1.085       .  S
C1905      H1907   1.086       .  S
C1905      C1906   1.347       .  D
C1906      H1908   1.085       .  S
C1909      H1911   1.086       .  S
C1909      C1910   1.338       .  D
C1910      H1912   1.087       .  S
C1913      H1915   1.086       .  S
C1913      C1914   1.348       .  D
C1914      H1916   1.086       .  S
C1917      H1919   1.087       .  S
C1917      C1918   1.343       .  D
C1918      H1920   1.086       .  S
C1921      H1923   1.088       .  S
C1921      C1922   1.339       .  D
C1922      H1924   1.088       .  S
C1925      H1927   1.086       .  S
C1925      C1926   1.345       .  D
C1926      H1928   1.086       .  S
C1929      H1931   1.088       .  S
C1929      C1930   1.337       .  D
C1930      H1932   1.086       .  S
C1933      H1935   1.086       .  S
C1933      C1934   1.340       .  D
C1934      H1936   1.087       .  S
C1937      H1939   1.087       .  S
C1937      C1938   1.344       .  D
C1938      H1940   1.087       .  S
C1941      H1943   1.087       .  S
C1941      C1942   1.338       .  D
C1942      H1944   1.085       .  S
C1945      H1947   1.087       .  S
C1945      C1946   1.347       .  D
C1946      H1948   1.086       .  S
C1949      H1951   1.087       .  S
C1949      C1950   1.343       .  D
C1950      H1952   1.086       .  S
C1953      H1955   1.086       .  S
C1953      C1954   1.341       .  D
C1954      H1956   1.087       .  S
C1957      H1959   1.087       .  S
C1957      C1958   1.341       .  D
C1958      H1960   1.087       .  S
C1961      H1963   1.086       .  S
C1961      C1962   1.339       .  D
C1962      H1964   1.086       .  S
C1965      H1967   1.088       .  S
C1965      C1966   1.342       .  D
C1966      H1968   1.086       .  S
C1969      H1971   1.087       .  S
C1969      C1970   1.331       .  D
C1970      H1972   1.089       .  S
C1973      H1975   1.086       .  S
C1973      C1974   1.346       .  D
C1974      H1976   1.085       .  S
C1977      H1979   1.086       .  S
C1977      C1978   1.344       .  D
C1978      H1980   1.086       .  S
C1981      H1983   1.087       .  S
C1981      C1982   1.353       .  D
C1982      H1984   1.087       .  S
C1985      H1987   1.084       .  S
C1985      C1986   1.343       .  D
C1986      H1988   1.088       .  S
C1989      H1991   1.088       .  S
C1989      C1990   1.343       .  D
C1990      H1992   1.085       .  S
C1993      H1995   1.087       .  S
C1993      C1994   1.338       .  D
C1994      H1996   1.084       .  S
C1997      H1999   1.086       .  S
C1997      C1998   1.346       .  D
C1998      H2000   1.085       .  S
C2001      H2003   1.085       .  S
C2001      C2002   1.345       .  D
C2002      H2004   1.082       .  S
C2005      H2007   1.086       .  S
C2005      C2006   1.352       .  D
C2006      H2008   1.082       .  S
C2009      H2011   1.084       .  S
C2009      C2010   1.338       .  D
C2010      H2012   1.086       .  S
C2013      H2015   1.085       .  S
C2013      C2014   1.337       .  D
C2014      H2016   1.086       .  S
O2017      C2027   1.280       .  A
O2018      C2028   1.280       .  A
O2019      C2029   1.280       .  A
O2020      C2030   1.285       .  A
O2020     Cu2025   2.035       .  S
O2021      C2030   1.271       .  A
O2022      C2029   1.279       .  A
O2022     Cu2026   2.023   1_565  S
O2023      C2028   1.277       .  A
O2024      C2027   1.277       .  A
C2027      C2342   1.481       .  S
C2028      C2349   1.483       .  S
C2029      C2345   1.487       .  S
C2030      C2338   1.479       .  S
O2031      C2041   1.277       .  A
O2031     Cu2039   2.012   1_655  S
O2032      C2042   1.277       .  A
O2033      C2043   1.280       .  A
O2034      C2044   1.281       .  A
O2035      C2044   1.277       .  A
O2035     Cu2040   2.002   1_655  S
O2036      C2043   1.273       .  A
O2037      C2042   1.283       .  A
O2038      C2041   1.280       .  A
C2041      C2334   1.479       .  S
C2042      C2326   1.491       .  S
C2043      C2321   1.467       .  S
C2044      C2330   1.488       .  S
O2045      C2055   1.280       .  A
O2045     Cu2053   2.019       .  S
O2046      C2056   1.279       .  A
O2046     Cu2389   2.018   1_554  S
O2047      C2057   1.274       .  A
O2047     Cu2053   1.995       .  S
O2048      C2058   1.275       .  A
O2048     Cu2389   1.982   1_554  S
O2049      C2058   1.276       .  A
O2049     Cu2390   2.001       .  S
O2050      C2057   1.278       .  A
O2050     Cu2054   1.997       .  S
O2051      C2056   1.279       .  A
O2051     Cu2390   2.027       .  S
O2052      C2055   1.276       .  A
O2052     Cu2054   2.004       .  S
Cu2053     O2382   2.023       .  S
Cu2053     O2384   1.998       .  S
Cu2053    Cu2054   2.376       .  S
Cu2054     O2385   2.003       .  S
Cu2054     O2387   2.013       .  S
C2055      C2317   1.475       .  S
C2056      C2309   1.482       .  S
C2057      C2305   1.465       .  S
C2058      C2313   1.459       .  S
C2059      C2060   1.533       .  S
C2059      C2065   1.539       .  S
C2059      C2063   1.531       .  S
C2059      C2293   1.513       .  S
C2060      H2067   1.086       .  S
C2060      C2061   1.367       .  D
C2061      C2062   1.543       .  S
C2061      C2301   1.483       .  S
C2062      C2066   1.546       .  S
C2062      C2064   1.544       .  S
C2062      H2068   1.111       .  S
C2063      H2069   1.087       .  S
C2063      C2064   1.357       .  D
C2064      C2297   1.476       .  S
C2065      H2070   1.084       .  S
C2065      C2066   1.374       .  D
C2066      C2346   1.498       .  S
C2071      C2072   1.533       .  S
C2071      C2077   1.527       .  S
C2071      C2075   1.533       .  S
C2071      C2281   1.508       .  S
C2072      H2079   1.086       .  S
C2072      C2073   1.364       .  D
C2073      C2074   1.545       .  S
C2073      C2285   1.485       .  S
C2074      C2078   1.550       .  S
C2074      C2076   1.552       .  S
C2074      H2080   1.110       .  S
C2075      H2081   1.087       .  S
C2075      C2076   1.365       .  D
C2076      C2289   1.489       .  S
C2077      H2082   1.082       .  S
C2077      C2078   1.369       .  D
C2078      C2333   1.496       .  S
C2083      C2084   1.527       .  S
C2083      C2089   1.531       .  S
C2083      C2087   1.536       .  S
C2083      C2273   1.513       .  S
C2084      H2091   1.087       .  S
C2084      C2085   1.357       .  D
C2085      C2086   1.555       .  S
C2085      C2277   1.485       .  S
C2086      C2090   1.556       .  S
C2086      C2088   1.547       .  S
C2086      H2092   1.108       .  S
C2087      H2093   1.086       .  S
C2087      C2088   1.372       .  D
C2088      C2310   1.491       .  S
C2089      H2094   1.087       .  S
C2089      C2090   1.366       .  D
C2090      C2325   1.498       .  S
C2095      C2096   1.536       .  S
C2095      C2101   1.550       .  S
C2095      C2099   1.539       .  S
C2095      C2265   1.517       .  S
C2096      H2103   1.086       .  S
C2096      C2097   1.363       .  D
C2097      C2098   1.524       .  S
C2097      C2306   1.468       .  S
C2098      C2102   1.524       .  S
C2098      C2100   1.525       .  S
C2098      H2104   1.112       .  S
C2099      H2105   1.086       .  S
C2099      C2100   1.363       .  D
C2100      C2269   1.467       .  S
C2101      H2106   1.085       .  S
C2101      C2102   1.378       .  D
C2102      C2337   1.483       .  S
O2107      C2117   1.287       .  A
O2107     Cu2451   2.055       .  S
O2108      C2118   1.275       .  A
O2109      C2119   1.275       .  A
O2109     Cu2115   1.999       .  S
O2110      C2120   1.277       .  A
O2111      C2120   1.279       .  A
O2111     Cu2452   2.024       .  S
O2112      C2119   1.278       .  A
O2113      C2118   1.281       .  A
O2113     Cu2116   2.016       .  S
O2114      C2117   1.270       .  A
Cu2115     O2443   2.021       .  S
Cu2116     O2447   2.015       .  S
C2117      C2278   1.481       .  S
C2118      C2298   1.477       .  S
C2119      C2270   1.464       .  S
C2120      C2286   1.476       .  S
O2121      C2131   1.279       .  A
O2121     Cu2465   2.020   1_554  S
O2122      C2132   1.276       .  A
O2122     Cu2129   2.000       .  S
O2123      C2133   1.277       .  A
O2123     Cu2465   2.016   1_554  S
O2124      C2134   1.283       .  A
O2124     Cu2129   2.029       .  S
O2125      C2134   1.274       .  A
O2125     Cu2130   1.999       .  S
O2126      C2133   1.282       .  A
O2126     Cu2466   2.031       .  S
O2127      C2132   1.281       .  A
O2127     Cu2130   2.031       .  S
O2128      C2131   1.278       .  A
O2128     Cu2466   2.009       .  S
Cu2129     O2457   2.011       .  S
Cu2129     O2459   2.036       .  S
Cu2129    Cu2130   2.373       .  S
Cu2130     O2462   2.001       .  S
Cu2130     O2464   2.021       .  S
C2131      C2257   1.480       .  S
C2132      C2302   1.477       .  S
C2133      C2290   1.485       .  S
C2134      C2261   1.477       .  S
O2135      C2145   1.276       .  A
O2135     Cu2143   1.992       .  S
O2136      C2146   1.276       .  A
O2136     Cu2143   1.999       .  S
O2137      C2147   1.278       .  A
O2137     Cu2143   2.012       .  S
O2138      C2148   1.280       .  A
O2138     Cu2143   2.028       .  S
O2139      C2148   1.276       .  A
O2139     Cu2144   1.995       .  S
O2140      C2147   1.274       .  A
O2140     Cu2144   1.991       .  S
O2141      C2146   1.280       .  A
O2141     Cu2144   2.021       .  S
O2142      C2145   1.278       .  A
O2142     Cu2144   2.014       .  S
Cu2143    Cu2144   2.377       .  S
C2145      C2250   1.472       .  S
C2146      C2294   1.474       .  S
C2147      C2282   1.460       .  S
C2148      C2253   1.473       .  S
C2149      C2150   1.539       .  S
C2149      C2155   1.532       .  S
C2149      C2153   1.531       .  S
C2149      C2318   1.513       .  S
C2150      H2157   1.086       .  S
C2150      C2151   1.369       .  D
C2151      C2152   1.539       .  S
C2151      C2246   1.486       .  S
C2152      C2156   1.550       .  S
C2152      C2154   1.540       .  S
C2152      H2158   1.108       .  S
C2153      H2159   1.086       .  S
C2153      C2154   1.368       .  D
C2154      C2254   1.486       .  S
C2155      H2160   1.087       .  S
C2155      C2156   1.366       .  D
C2156      C2341   1.491       .  S
C2161      C2162   1.533       .  S
C2161      C2167   1.530       .  S
C2161      C2165   1.532       .  S
C2161      C2314   1.498       .  S
C2162      H2169   1.087       .  S
C2162      C2163   1.368       .  D
C2163      C2164   1.534       .  S
C2163      C2249   1.472       .  S
C2164      C2168   1.544       .  S
C2164      C2166   1.529       .  S
C2164      H2170   1.108       .  S
C2165      H2171   1.086       .  S
C2165      C2166   1.363       .  D
C2166      C2241   1.469       .  S
C2167      H2172   1.087       .  S
C2167      C2168   1.361       .  D
C2168      C2322   1.479       .  S
C2173      C2174   1.540       .  S
C2173      C2179   1.543       .  S
C2173      C2177   1.536       .  S
C2173      C2258   1.515       .  S
C2174      H2181   1.085       .  S
C2174      C2175   1.368       .  D
C2175      C2176   1.537       .  S
C2175      C2237   1.487       .  S
C2176      C2180   1.540       .  S
C2176      C2178   1.535       .  S
C2176      H2182   1.111       .  S
C2177      H2183   1.086       .  S
C2177      C2178   1.365       .  D
C2178      C2233   1.479       .  S
C2179      H2184   1.084       .  S
C2179      C2180   1.371       .  D
C2180      C2329   1.492       .  S
C2185      C2186   1.529       .  S
C2185      C2191   1.541       .  S
C2185      C2189   1.545       .  S
C2185      C2262   1.513       .  S
C2186      H2193   1.086       .  S
C2186      C2187   1.359       .  D
C2187      C2188   1.534       .  S
C2187      C2226   1.477       .  S
C2188      C2192   1.538       .  S
C2188      C2190   1.536       .  S
C2188      H2194   1.112       .  S
C2189      H2195   1.085       .  S
C2189      C2190   1.374       .  D
C2190      C2229   1.488       .  S
C2191      H2196   1.085       .  S
C2191      C2192   1.371       .  D
C2192      C2350   1.486       .  S
O2197      C2207   1.277       .  A
O2198      C2208   1.279       .  A
O2198     Cu2205   2.018       .  S
O2199      C2209   1.275       .  A
O2200      C2210   1.275       .  A
O2200     Cu2205   1.996       .  S
O2201      C2210   1.276       .  A
O2202      C2209   1.278       .  A
O2202     Cu2206   2.013       .  S
O2203      C2208   1.278       .  A
O2204      C2207   1.277       .  A
O2204     Cu2206   2.013       .  S
C2207      C2234   1.472       .  S
C2208      C2245   1.479       .  S
C2209      C2225   1.468       .  S
C2210      C2242   1.461       .  S
O2211      C2221   1.277       .  A
O2211     Cu2219   2.012       .  S
O2212      C2222   1.278       .  A
O2212     Cu2219   2.015       .  S
O2213      C2223   1.280       .  A
O2213     Cu2219   2.021       .  S
O2214      C2224   1.278       .  A
O2214     Cu2219   2.011       .  S
O2215      C2224   1.277       .  A
O2215     Cu2220   2.011       .  S
O2216      C2223   1.278       .  A
O2216     Cu2220   2.018       .  S
O2217      C2222   1.279       .  A
O2217     Cu2220   2.022       .  S
O2218      C2221   1.280       .  A
O2218     Cu2220   2.020       .  S
Cu2219    Cu2220   2.373       .  S
C2221      C2266   1.479       .  S
C2222      C2238   1.481       .  S
C2223      C2230   1.482       .  S
C2224      C2274   1.473       .  S
C2225      H2227   1.086       .  S
C2225      C2226   1.346       .  D
C2226      H2228   1.086       .  S
C2229      H2231   1.087       .  S
C2229      C2230   1.345       .  D
C2230      H2232   1.086       .  S
C2233      H2235   1.087       .  S
C2233      C2234   1.344       .  D
C2234      H2236   1.086       .  S
C2237      H2239   1.086       .  S
C2237      C2238   1.347       .  D
C2238      H2240   1.086       .  S
C2241      H2243   1.087       .  S
C2241      C2242   1.340       .  D
C2242      H2244   1.087       .  S
C2245      H2247   1.086       .  S
C2245      C2246   1.346       .  D
C2246      H2248   1.086       .  S
C2249      H2251   1.085       .  S
C2249      C2250   1.344       .  D
C2250      H2252   1.086       .  S
C2253      H2255   1.086       .  S
C2253      C2254   1.345       .  D
C2254      H2256   1.085       .  S
C2257      H2259   1.086       .  S
C2257      C2258   1.347       .  D
C2258      H2260   1.086       .  S
C2261      H2263   1.086       .  S
C2261      C2262   1.338       .  D
C2262      H2264   1.088       .  S
C2265      H2267   1.087       .  S
C2265      C2266   1.344       .  D
C2266      H2268   1.086       .  S
C2269      H2271   1.087       .  S
C2269      C2270   1.337       .  D
C2270      H2272   1.087       .  S
C2273      H2275   1.086       .  S
C2273      C2274   1.347       .  D
C2274      H2276   1.087       .  S
C2277      H2279   1.088       .  S
C2277      C2278   1.334       .  D
C2278      H2280   1.087       .  S
C2281      H2283   1.087       .  S
C2281      C2282   1.334       .  D
C2282      H2284   1.086       .  S
C2285      H2287   1.086       .  S
C2285      C2286   1.349       .  D
C2286      H2288   1.086       .  S
C2289      H2291   1.087       .  S
C2289      C2290   1.343       .  D
C2290      H2292   1.085       .  S
C2293      H2295   1.087       .  S
C2293      C2294   1.344       .  D
C2294      H2296   1.087       .  S
C2297      H2299   1.087       .  S
C2297      C2298   1.339       .  D
C2298      H2300   1.086       .  S
C2301      H2303   1.086       .  S
C2301      C2302   1.348       .  D
C2302      H2304   1.086       .  S
C2305      H2307   1.087       .  S
C2305      C2306   1.338       .  D
C2306      H2308   1.086       .  S
C2309      H2311   1.086       .  S
C2309      C2310   1.348       .  D
C2310      H2312   1.086       .  S
C2313      H2315   1.088       .  S
C2313      C2314   1.343       .  D
C2314      H2316   1.087       .  S
C2317      H2319   1.086       .  S
C2317      C2318   1.343       .  D
C2318      H2320   1.086       .  S
C2321      H2323   1.083       .  S
C2321      C2322   1.339       .  D
C2322      H2324   1.087       .  S
C2325      H2327   1.088       .  S
C2325      C2326   1.346       .  D
C2326      H2328   1.085       .  S
C2329      H2331   1.085       .  S
C2329      C2330   1.351       .  D
C2330      H2332   1.083       .  S
C2333      H2335   1.085       .  S
C2333      C2334   1.354       .  D
C2334      H2336   1.081       .  S
C2337      H2339   1.087       .  S
C2337      C2338   1.336       .  D
C2338      H2340   1.086       .  S
C2341      H2343   1.087       .  S
C2341      C2342   1.345       .  D
C2342      H2344   1.082       .  S
C2345      H2347   1.083       .  S
C2345      C2346   1.351       .  D
C2346      H2348   1.085       .  S
C2349      H2351   1.084       .  S
C2349      C2350   1.348       .  D
C2350      H2352   1.085       .  S
O2353      C2363   1.276       .  A
O2354      C2364   1.272       .  A
O2355      C2365   1.282       .  A
O2356      C2366   1.282       .  A
O2356     Cu2361   2.024       .  S
O2357      C2366   1.271       .  A
O2358      C2365   1.271       .  A
O2358     Cu2362   1.971   1_565  S
O2359      C2364   1.282       .  A
O2360      C2363   1.281       .  A
C2363      C2678   1.482       .  S
C2364      C2685   1.473       .  S
C2365      C2681   1.468       .  S
C2366      C2674   1.468       .  S
O2367      C2377   1.273       .  A
O2367     Cu2375   1.975       .  S
O2368      C2378   1.276       .  A
O2369      C2379   1.282       .  A
O2370      C2380   1.279       .  A
O2371      C2380   1.281       .  A
O2371     Cu2376   2.030   1_655  S
O2372      C2379   1.275       .  A
O2373      C2378   1.282       .  A
O2374      C2377   1.282       .  A
C2377      C2670   1.480       .  S
C2378      C2662   1.486       .  S
C2379      C2657   1.479       .  S
C2380      C2666   1.489       .  S
O2381      C2391   1.280       .  A
O2381     Cu2389   2.021       .  S
O2382      C2392   1.280       .  A
O2383      C2393   1.274       .  A
O2383     Cu2389   1.984       .  S
O2384      C2394   1.277       .  A
O2385      C2394   1.277       .  A
O2386      C2393   1.277       .  A
O2386     Cu2390   1.999   1_556  S
O2387      C2392   1.277       .  A
O2388      C2391   1.279       .  A
O2388     Cu2390   2.023   1_556  S
Cu2389    Cu2390   2.376   1_556  S
C2391      C2653   1.484       .  S
C2392      C2645   1.478       .  S
C2393      C2641   1.460       .  S
C2394      C2649   1.468       .  S
C2395      C2396   1.532       .  S
C2395      C2401   1.534       .  S
C2395      C2399   1.530       .  S
C2395      C2629   1.507       .  S
C2396      H2403   1.086       .  S
C2396      C2397   1.366       .  D
C2397      C2398   1.534       .  S
C2397      C2637   1.472       .  S
C2398      C2402   1.534       .  S
C2398      C2400   1.541       .  S
C2398      H2404   1.111       .  S
C2399      H2405   1.087       .  S
C2399      C2400   1.359       .  D
C2400      C2633   1.473       .  S
C2401      H2406   1.083       .  S
C2401      C2402   1.375       .  D
C2402      C2682   1.486       .  S
C2407      C2408   1.533       .  S
C2407      C2413   1.534       .  S
C2407      C2411   1.536       .  S
C2407      C2617   1.506       .  S
C2408      H2415   1.086       .  S
C2408      C2409   1.363       .  D
C2409      C2410   1.539       .  S
C2409      C2621   1.481       .  S
C2410      C2414   1.542       .  S
C2410      C2412   1.541       .  S
C2410      H2416   1.111       .  S
C2411      H2417   1.086       .  S
C2411      C2412   1.370       .  D
C2412      C2625   1.491       .  S
C2413      H2418   1.084       .  S
C2413      C2414   1.366       .  D
C2414      C2669   1.483       .  S
C2419      C2420   1.526       .  S
C2419      C2425   1.523       .  S
C2419      C2423   1.531       .  S
C2419      C2609   1.503       .  S
C2420      H2427   1.087       .  S
C2420      C2421   1.359       .  D
C2421      C2422   1.552       .  S
C2421      C2613   1.480       .  S
C2422      C2426   1.556       .  S
C2422      C2424   1.550       .  S
C2422      H2428   1.109       .  S
C2423      H2429   1.086       .  S
C2423      C2424   1.370       .  D
C2424      C2646   1.488       .  S
C2425      H2430   1.087       .  S
C2425      C2426   1.363       .  D
C2426      C2661   1.489       .  S
C2431      C2432   1.527       .  S
C2431      C2437   1.538       .  S
C2431      C2435   1.537       .  S
C2431      C2601   1.510       .  S
C2432      H2439   1.086       .  S
C2432      C2433   1.364       .  D
C2433      C2434   1.531       .  S
C2433      C2642   1.471       .  S
C2434      C2438   1.529       .  S
C2434      C2436   1.529       .  S
C2434      H2440   1.112       .  S
C2435      H2441   1.085       .  S
C2435      C2436   1.368       .  D
C2436      C2605   1.476       .  S
C2437      H2442   1.084       .  S
C2437      C2438   1.375       .  D
C2438      C2673   1.480       .  S
O2443      C2453   1.282       .  A
O2444      C2454   1.276       .  A
O2445      C2455   1.271       .  A
O2445     Cu2451   1.974   1_556  S
O2446      C2456   1.277       .  A
O2447      C2456   1.278       .  A
O2448      C2455   1.282       .  A
O2449      C2454   1.279       .  A
O2449     Cu2452   2.002   1_556  S
O2450      C2453   1.275       .  A
C2453      C2614   1.481       .  S
C2454      C2634   1.472       .  S
C2455      C2606   1.464       .  S
C2456      C2622   1.471       .  S
O2457      C2467   1.277       .  A
O2458      C2468   1.278       .  A
O2458     Cu2465   2.008       .  S
O2459      C2469   1.281       .  A
O2460      C2470   1.280       .  A
O2460     Cu2465   2.018       .  S
O2461      C2470   1.279       .  A
O2461     Cu2466   2.025   1_556  S
O2462      C2469   1.276       .  A
O2463      C2468   1.275       .  A
O2463     Cu2466   1.998   1_556  S
O2464      C2467   1.280       .  A
Cu2465    Cu2466   2.373   1_556  S
C2467      C2593   1.479       .  S
C2468      C2638   1.465       .  S
C2469      C2626   1.479       .  S
C2470      C2597   1.486       .  S
O2471      C2481   1.277       .  A
O2471     Cu2479   2.005       .  S
O2472      C2482   1.275       .  A
O2472     Cu2479   1.999       .  S
O2473      C2483   1.278       .  A
O2473     Cu2479   2.014       .  S
O2474      C2484   1.280       .  A
O2474     Cu2479   2.022       .  S
O2475      C2484   1.276       .  A
O2475     Cu2480   2.001       .  S
O2476      C2483   1.276       .  A
O2476     Cu2480   1.994       .  S
O2477      C2482   1.279       .  A
O2477     Cu2480   2.012       .  S
O2478      C2481   1.279       .  A
O2478     Cu2480   2.017       .  S
Cu2479    Cu2480   2.376       .  S
C2481      C2586   1.475       .  S
C2482      C2630   1.470       .  S
C2483      C2618   1.470       .  S
C2484      C2589   1.475       .  S
C2485      C2486   1.537       .  S
C2485      C2491   1.539       .  S
C2485      C2489   1.537       .  S
C2485      C2654   1.520       .  S
C2486      H2493   1.086       .  S
C2486      C2487   1.369       .  D
C2487      C2488   1.533       .  S
C2487      C2582   1.479       .  S
C2488      C2492   1.542       .  S
C2488      C2490   1.534       .  S
C2488      H2494   1.107       .  S
C2489      H2495   1.086       .  S
C2489      C2490   1.368       .  D
C2490      C2590   1.483       .  S
C2491      H2496   1.086       .  S
C2491      C2492   1.371       .  D
C2492      C2677   1.492       .  S
C2497      C2498   1.531       .  S
C2497      C2503   1.531       .  S
C2497      C2501   1.533       .  S
C2497      C2650   1.506       .  S
C2498      H2505   1.086       .  S
C2498      C2499   1.367       .  D
C2499      C2500   1.541       .  S
C2499      C2585   1.484       .  S
C2500      C2504   1.551       .  S
C2500      C2502   1.536       .  S
C2500      H2506   1.107       .  S
C2501      H2507   1.085       .  S
C2501      C2502   1.365       .  D
C2502      C2577   1.480       .  S
C2503      H2508   1.086       .  S
C2503      C2504   1.366       .  D
C2504      C2658   1.490       .  S
C2509      C2510   1.537       .  S
C2509      C2515   1.545       .  S
C2509      C2513   1.537       .  S
C2509      C2594   1.517       .  S
C2510      H2517   1.086       .  S
C2510      C2511   1.366       .  D
C2511      C2512   1.536       .  S
C2511      C2573   1.481       .  S
C2512      C2516   1.538       .  S
C2512      C2514   1.534       .  S
C2512      H2518   1.112       .  S
C2513      H2519   1.086       .  S
C2513      C2514   1.364       .  D
C2514      C2569   1.478       .  S
C2515      H2520   1.084       .  S
C2515      C2516   1.376       .  D
C2516      C2665   1.497       .  S
C2521      C2522   1.537       .  S
C2521      C2527   1.543       .  S
C2521      C2525   1.549       .  S
C2521      C2598   1.522       .  S
C2522      H2529   1.086       .  S
C2522      C2523   1.364       .  D
C2523      C2524   1.528       .  S
C2523      C2562   1.477       .  S
C2524      C2528   1.524       .  S
C2524      C2526   1.529       .  S
C2524      H2530   1.112       .  S
C2525      H2531   1.083       .  S
C2525      C2526   1.372       .  D
C2526      C2565   1.477       .  S
C2527      H2532   1.085       .  S
C2527      C2528   1.372       .  D
C2528      C2686   1.481       .  S
O2533      C2543   1.276       .  A
O2534      C2544   1.275       .  A
O2534     Cu2541   1.996       .  S
O2535      C2545   1.278       .  A
O2536      C2546   1.277       .  A
O2536     Cu2541   2.002       .  S
O2537      C2546   1.277       .  A
O2538      C2545   1.277       .  A
O2538     Cu2542   2.010       .  S
O2539      C2544   1.280       .  A
O2540      C2543   1.278       .  A
O2540     Cu2542   2.017       .  S
C2543      C2570   1.472       .  S
C2544      C2581   1.471       .  S
C2545      C2561   1.471       .  S
C2546      C2578   1.468       .  S
O2547      C2557   1.275       .  A
O2547     Cu2555   1.998       .  S
O2548      C2558   1.277       .  A
O2548     Cu2555   2.004       .  S
O2549      C2559   1.280       .  A
O2549     Cu2555   2.014       .  S
O2550      C2560   1.277       .  A
O2550     Cu2555   2.004       .  S
O2551      C2560   1.276       .  A
O2551     Cu2556   1.993       .  S
O2552      C2559   1.275       .  A
O2552     Cu2556   2.004       .  S
O2553      C2558   1.279       .  A
O2553     Cu2556   2.021       .  S
O2554      C2557   1.280       .  A
O2554     Cu2556   2.015       .  S
Cu2555    Cu2556   2.376       .  S
C2557      C2602   1.472       .  S
C2558      C2574   1.477       .  S
C2559      C2566   1.475       .  S
C2560      C2610   1.464       .  S
C2561      H2563   1.086       .  S
C2561      C2562   1.342       .  D
C2562      H2564   1.086       .  S
C2565      H2567   1.087       .  S
C2565      C2566   1.338       .  D
C2566      H2568   1.086       .  S
C2569      H2571   1.086       .  S
C2569      C2570   1.345       .  D
C2570      H2572   1.086       .  S
C2573      H2575   1.086       .  S
C2573      C2574   1.346       .  D
C2574      H2576   1.086       .  S
C2577      H2579   1.086       .  S
C2577      C2578   1.344       .  D
C2578      H2580   1.086       .  S
C2581      H2583   1.087       .  S
C2581      C2582   1.340       .  D
C2582      H2584   1.087       .  S
C2585      H2587   1.085       .  S
C2585      C2586   1.348       .  D
C2586      H2588   1.086       .  S
C2589      H2591   1.086       .  S
C2589      C2590   1.343       .  D
C2590      H2592   1.086       .  S
C2593      H2595   1.087       .  S
C2593      C2594   1.345       .  D
C2594      H2596   1.086       .  S
C2597      H2599   1.082       .  S
C2597      C2598   1.348       .  D
C2598      H2600   1.087       .  S
C2601      H2603   1.087       .  S
C2601      C2602   1.340       .  D
C2602      H2604   1.086       .  S
C2605      H2607   1.087       .  S
C2605      C2606   1.336       .  D
C2606      H2608   1.086       .  S
C2609      H2611   1.087       .  S
C2609      C2610   1.344       .  D
C2610      H2612   1.087       .  S
C2613      H2615   1.087       .  S
C2613      C2614   1.338       .  D
C2614      H2616   1.085       .  S
C2617      H2619   1.087       .  S
C2617      C2618   1.346       .  D
C2618      H2620   1.087       .  S
C2621      H2623   1.086       .  S
C2621      C2622   1.346       .  D
C2622      H2624   1.086       .  S
C2625      H2627   1.086       .  S
C2625      C2626   1.346       .  D
C2626      H2628   1.086       .  S
C2629      H2631   1.086       .  S
C2629      C2630   1.342       .  D
C2630      H2632   1.087       .  S
C2633      H2635   1.087       .  S
C2633      C2634   1.339       .  D
C2634      H2636   1.086       .  S
C2637      H2639   1.086       .  S
C2637      C2638   1.338       .  D
C2638      H2640   1.087       .  S
C2641      H2643   1.087       .  S
C2641      C2642   1.339       .  D
C2642      H2644   1.086       .  S
C2645      H2647   1.086       .  S
C2645      C2646   1.350       .  D
C2646      H2648   1.086       .  S
C2649      H2651   1.087       .  S
C2649      C2650   1.343       .  D
C2650      H2652   1.087       .  S
C2653      H2655   1.086       .  S
C2653      C2654   1.348       .  D
C2654      H2656   1.086       .  S
C2657      H2659   1.082       .  S
C2657      C2658   1.343       .  D
C2658      H2660   1.087       .  S
C2661      H2663   1.088       .  S
C2661      C2662   1.342       .  D
C2662      H2664   1.085       .  S
C2665      H2667   1.086       .  S
C2665      C2666   1.348       .  D
C2666      H2668   1.083       .  S
C2669      H2671   1.086       .  S
C2669      C2670   1.352       .  D
C2670      H2672   1.084       .  S
C2673      H2675   1.086       .  S
C2673      C2674   1.337       .  D
C2674      H2676   1.083       .  S
C2677      H2679   1.086       .  S
C2677      C2678   1.351       .  D
C2678      H2680   1.081       .  S
C2681      H2683   1.082       .  S
C2681      C2682   1.339       .  D
C2682      H2684   1.086       .  S
C2685      H2687   1.085       .  S
C2685      C2686   1.338       .  D
C2686      H2688   1.087       .  S
