geometry optimzed in LAMMPS
_audit_creation_date              2020-12-01 
_audit_creation_method            'lammps2cif' 
_symmetry_space_group_name_H-M    'P1' 
_symmetry_Int_Tables_number       1 
_symmetry_cell_setting            triclinic 
loop_ 
_symmetry_equiv_pos_as_xyz 
  x,y,z 
_cell_length_a                    39.05387947 
_cell_length_b                    39.08694182447661 
_cell_length_c                    39.0142683229788 
_cell_angle_alpha                 90.02323573358665 
_cell_angle_beta                  89.9938645885333 
_cell_angle_gamma                 89.62956146942444 
loop_ 
_atom_site_label 
_atom_site_type_symbol 
_atom_site_fract_x 
_atom_site_fract_y 
_atom_site_fract_z 
_atom_site_charge 
N1          N  0.78251511  0.27377270  0.44528456    -0.25200
N2          N  0.81249322  0.28041949  0.43095515    -0.33000
C3          C  0.80989160  0.28036963  0.39659826     0.03200
C4          C  0.77657419  0.27327460  0.38741444     0.09200
C5          C  0.75979040  0.26925566  0.41913305    -0.03900
H6          H  0.83103902  0.28579210  0.37960448     0.09900
H7          H  0.73296843  0.26351780  0.42271504     0.11100
Cu8        Cu  0.85669680  0.29234967  0.45651750     0.44200
Cu9        Cu  0.77681753  0.27232940  0.50113693     0.42000
Cu10       Cu  0.85507150  0.30102655  0.54544869     0.43900
N11         N  0.89602937  0.31487897  0.48270266    -0.32600
N12         N  0.89527938  0.31875029  0.51626899    -0.26800
C13         C  0.91979230  0.34086454  0.52550287    -0.02900
C14         C  0.93661472  0.35125435  0.49620268     0.09300
C15         C  0.92091761  0.33440557  0.46951718     0.03100
H16         H  0.92232070  0.35170273  0.55089933     0.10700
H17         H  0.92430367  0.33929686  0.44243105     0.09800
N18         N  0.81174192  0.28534399  0.57123473    -0.34000
N19         N  0.78294169  0.27464137  0.55692369    -0.26200
C20         C  0.76113871  0.26674577  0.58303916    -0.01400
C21         C  0.77702054  0.27312194  0.61480668     0.07200
C22         C  0.80909389  0.28477643  0.60563515     0.05300
H23         H  0.73552680  0.25702356  0.57938747     0.10400
H24         H  0.82956499  0.29219675  0.62268179     0.09200
N25         N  0.53755340  0.78400228  0.27527018    -0.25200
N26         N  0.55144881  0.81421796  0.28139937    -0.33000
C27         C  0.58572564  0.81197704  0.28082521     0.03200
C28         C  0.59535441  0.77869068  0.27388807     0.09200
C29         C  0.56395797  0.76148541  0.27050356    -0.03900
H30         H  0.60229138  0.83353327  0.28543713     0.09900
H31         H  0.56075215  0.73461684  0.26477145     0.11100
Cu32       Cu  0.52622807  0.85893902  0.29257328     0.44200
Cu33       Cu  0.48208588  0.77782725  0.27403807     0.42000
Cu34       Cu  0.43901192  0.85969129  0.29479135     0.43900
N35         N  0.50003263  0.89951062  0.31325854    -0.32600
N36         N  0.46633838  0.89969109  0.31429100    -0.26800
C37         C  0.45561089  0.92439625  0.33570544    -0.02900
C38         C  0.48416514  0.94049014  0.34857189     0.09300
C39         C  0.51195054  0.92410615  0.33398950     0.03100
H40         H  0.42946487  0.92750967  0.34441343     0.10700
H41         H  0.53855509  0.92691077  0.34115269     0.09800
N42         N  0.41325614  0.81618868  0.28166848    -0.34000
N43         N  0.42675623  0.78581732  0.27458948    -0.26200
C44         C  0.40008830  0.76432567  0.26843624    -0.01400
C45         C  0.36896025  0.78236754  0.27182888     0.07200
C46         C  0.37896903  0.81504266  0.28029470     0.05300
H47         H  0.40294288  0.73759048  0.26178329     0.10400
H48         H  0.36263851  0.83685266  0.28554067     0.09200
N49         N  0.28202731  0.45430956  0.75107340    -0.25200
N50         N  0.31091910  0.44073216  0.76290816    -0.33000
C51         C  0.30936419  0.40630759  0.76220955     0.03200
C52         C  0.27811949  0.39648753  0.74909537     0.09200
C53         C  0.26148795  0.42773329  0.74199120    -0.03900
H54         H  0.32991048  0.38958462  0.77053721     0.09900
H55         H  0.23605755  0.43072416  0.73137766     0.11100
Cu56       Cu  0.35237210  0.46748003  0.78154508     0.44200
Cu57       Cu  0.27294494  0.50968949  0.75001305     0.42000
Cu58       Cu  0.33934432  0.55455013  0.79675035     0.43900
N59         N  0.38753258  0.49655149  0.80791522    -0.32600
N60         N  0.38219529  0.52937883  0.81378230    -0.26800
C61         C  0.40563635  0.54080742  0.83606797    -0.02900
C62         C  0.42672824  0.51375307  0.84460601     0.09300
C63         C  0.41457020  0.48598438  0.82651858     0.03100
H64         H  0.40516530  0.56593147  0.84773228     0.10700
H65         H  0.42246561  0.45955009  0.82935677     0.09800
N66         N  0.29781972  0.57947465  0.77650014    -0.34000
N67         N  0.27378985  0.56523821  0.75738578    -0.26200
C68         C  0.25358518  0.59127919  0.74553225    -0.01400
C69         C  0.26541997  0.62270100  0.75856556     0.07200
C70         C  0.29344270  0.61356873  0.77799901     0.05300
H71         H  0.23214098  0.58786732  0.72834782     0.10400
H72         H  0.31082148  0.63072402  0.79092874     0.09200
N73         N  0.23497574  0.28590628  0.04359166    -0.25200
N74         N  0.22359357  0.31502967  0.05687830    -0.33000
C75         C  0.22312049  0.31338535  0.09126446     0.03200
C76         C  0.23481465  0.28166202  0.10162081     0.09200
C77         C  0.24218151  0.26477312  0.07051553    -0.03900
H78         H  0.21462837  0.33422656  0.10743410     0.09900
H79         H  0.25214948  0.23901603  0.06787595     0.11100
Cu80       Cu  0.20747931  0.35738336  0.03023186     0.44200
Cu81       Cu  0.23891669  0.27909800  0.98801822     0.42000
Cu82       Cu  0.20724586  0.35605036  0.94216512     0.43900
N83         N  0.18631980  0.39672712  0.00250249    -0.32600
N84         N  0.18579615  0.39611770  0.96874941    -0.26800
C85         C  0.16590085  0.42183993  0.95728105    -0.02900
C86         C  0.15369848  0.43949920  0.98543255     0.09300
C87         C  0.16687472  0.42285562  0.01369693     0.03100
H88         H  0.15850285  0.42546782  0.93079538     0.10700
H89         H  0.16028280  0.42735301  0.04026942     0.09800
N90         N  0.22639389  0.31355393  0.91771794    -0.34000
N91         N  0.23764513  0.28495907  0.93222971    -0.26200
C92         C  0.24656972  0.26333563  0.90620455    -0.01400
C93         C  0.24064516  0.27943231  0.87443173     0.07200
C94         C  0.22786313  0.31113754  0.88342046     0.05300
H95         H  0.25656009  0.23772708  0.90991839     0.10400
H96         H  0.21942441  0.33124225  0.86631444     0.09200
N97         N  0.25541947  0.07102239  0.21536300    -0.25200
N98         N  0.27253188  0.08356759  0.18892831    -0.33000
C99         C  0.27482175  0.11780484  0.19128669     0.03200
C100        C  0.25800803  0.12867058  0.22039064     0.09200
C101        C  0.24568034  0.09823288  0.23502164    -0.03900
H102        H  0.28670306  0.13381768  0.17211421     0.09900
H103        H  0.23061499  0.09623610  0.25819615     0.11100
Cu104      Cu  0.29017951  0.05585328  0.14783407     0.44200
Cu105      Cu  0.24792125  0.01597214  0.22119752     0.42000
Cu106      Cu  0.28394337  0.96715610  0.14817139     0.43900
N107        N  0.30788380  0.02667544  0.10779435    -0.32600
N108        N  0.30573894  0.99303497  0.10784867    -0.26800
C109        C  0.32442381  0.98042228  0.08177312    -0.02900
C110        C  0.33873848  0.00765073  0.06452669     0.09300
C111        C  0.32787064  0.03657665  0.08169582     0.03100
H112        H  0.33012822  0.95355346  0.07800843     0.10700
H113        H  0.33683168  0.06244361  0.07790622     0.09800
N114        N  0.26398458  0.94425034  0.19122186    -0.34000
N115        N  0.24956911  0.96017052  0.21760564    -0.26200
C116        C  0.23823493  0.93541965  0.23936401    -0.01400
C117        C  0.24664297  0.90294635  0.22612040     0.07200
C118        C  0.26289243  0.91013177  0.19561071     0.05300
H119        H  0.22494237  0.94049179  0.26317103     0.10400
H120        H  0.27246463  0.89178504  0.17712780     0.09200
N121        N  0.75736309  0.73376469  0.56263987    -0.25200
N122        N  0.77822684  0.70999747  0.57522077    -0.33000
C123        C  0.77894985  0.71164191  0.60968228     0.03200
C124        C  0.75728340  0.73744126  0.62059479     0.09200
C125        C  0.74381374  0.75088605  0.58994993    -0.03900
H126        H  0.79318706  0.69403635  0.62572998     0.09900
H127        H  0.72525633  0.77144549  0.58787166     0.11100
Cu128      Cu  0.80229163  0.67205543  0.54735695     0.44200
Cu129      Cu  0.74924989  0.73977275  0.50750009     0.42000
Cu130      Cu  0.78448585  0.66690513  0.46021310     0.43900
N131        N  0.81832863  0.63124748  0.51791142    -0.32600
N132        N  0.81089339  0.62899006  0.48503485    -0.26800
C133        C  0.82657920  0.60138692  0.47164455    -0.02900
C134        C  0.84437760  0.58543213  0.49767012     0.09300
C135        C  0.83890102  0.60502123  0.52659955     0.03100
H136        H  0.82703556  0.59498940  0.44465954     0.10700
H137        H  0.85078299  0.60181010  0.55145659     0.09800
N138        N  0.76343987  0.70856944  0.43636184    -0.34000
N139        N  0.74958791  0.73558136  0.45162061    -0.26200
C140        C  0.73810278  0.75668495  0.42619525    -0.01400
C141        C  0.74585618  0.74215535  0.39404485     0.07200
C142        C  0.76181581  0.71172258  0.40214165     0.05300
H143        H  0.72520993  0.78087202  0.43056858     0.10400
H144        H  0.77107897  0.69251388  0.38439489     0.09200
N145        N  0.21553964  0.74902053  0.05564204    -0.25200
N146        N  0.18628653  0.73804562  0.06878509    -0.33000
C147        C  0.18770360  0.73802565  0.10323352     0.03200
C148        C  0.21930394  0.74966347  0.11361037     0.09200
C149        C  0.23635464  0.75657489  0.08261477    -0.03900
H150        H  0.16672321  0.73028939  0.11950793     0.09900
H151        H  0.26206436  0.76638831  0.08006441     0.11100
Cu152      Cu  0.14411014  0.72203533  0.04172627     0.44200
Cu153      Cu  0.22394186  0.75193920  0.00026304     0.42000
Cu154      Cu  0.15366944  0.71197598  0.95389353     0.43900
N155        N  0.10691693  0.69930115  0.01234294    -0.32600
N156        N  0.11083576  0.69541120  0.97901500    -0.26800
C157        C  0.08615163  0.67498209  0.96694856    -0.02900
C158        C  0.06573548  0.66562352  0.99412487     0.09300
C159        C  0.07961227  0.68125702  0.02262023     0.03100
H160        H  0.08538556  0.66482713  0.94115203     0.10700
H161        H  0.07272611  0.67689520  0.04912097     0.09800
N162        N  0.19585609  0.73105681  0.92952770    -0.34000
N163        N  0.22135285  0.74758386  0.94440944    -0.26200
C164        C  0.24192771  0.75919814  0.91871348    -0.01400
C165        C  0.22878744  0.74866935  0.88680171     0.07200
C166        C  0.19962894  0.73096991  0.89529581     0.05300
H167        H  0.26462942  0.77439259  0.92272805     0.10400
H168        H  0.18127737  0.72007029  0.87769626     0.09200
O169        O  0.94841163  0.52423174  0.97524120    -0.70800
O170        O  0.04605774  0.49533485  0.96468314    -0.71800
O171        O  0.98316518  0.46072922  0.97231314    -0.60400
O172        O  0.01121433  0.55903804  0.96810942    -0.68800
O173        O  0.01723158  0.55934423  0.02480940    -0.68400
O174        O  0.98939484  0.46142940  0.02898858    -0.59700
O175        O  0.05226525  0.49586295  0.02136229    -0.72200
O176        O  0.95440156  0.52475606  0.03194969    -0.70900
Cu177      Cu  0.99700828  0.50983136  0.96804714     1.04600
Cu178      Cu  0.00357468  0.51039070  0.02877091     1.04300
C179        C  0.93617418  0.52908587  0.00515439     0.95400
C180        C  0.06431544  0.49072486  0.99138809     0.94500
C181        C  0.98166903  0.44584673  0.00138509     0.86600
C182        C  0.01862866  0.57449498  0.99592666     0.92900
N183        N  0.71197082  0.95393020  0.23182631    -0.25200
N184        N  0.68143183  0.94066580  0.22569922    -0.33000
C185        C  0.68305689  0.90627921  0.22650576     0.03200
C186        C  0.71625581  0.89602402  0.23356635     0.09200
C187        C  0.73393005  0.92713835  0.23696133    -0.03900
H188        H  0.66116207  0.89001253  0.22236010     0.09900
H189        H  0.76083530  0.92988934  0.24285766     0.11100
Cu190      Cu  0.63735871  0.96780064  0.21472223     0.44200
Cu191      Cu  0.71989805  0.00929101  0.23217788     0.42000
Cu192      Cu  0.64160236  0.05658898  0.20853561     0.43900
N193        N  0.59769289  0.99638615  0.19469638    -0.32600
N194        N  0.59948861  0.02994898  0.19198883    -0.26800
C195        C  0.57420574  0.04113024  0.17143958    -0.02900
C196        C  0.55563496  0.01313476  0.16084243     0.09300
C197        C  0.57119680  0.98516130  0.17595070     0.03100
H198        H  0.57217378  0.06695778  0.16162873     0.10700
H199        H  0.56642587  0.95851667  0.17024811     0.09800
N200        N  0.68648832  0.08049239  0.22172996    -0.34000
N201        N  0.71566631  0.06509399  0.23001497    -0.26200
C202        C  0.73884159  0.09029131  0.23627127    -0.01400
C203        C  0.72318503  0.12254895  0.23186449     0.07200
C204        C  0.69005857  0.11468659  0.22256398     0.05300
H205        H  0.76513260  0.08568470  0.24377358     0.10400
H206        H  0.66967044  0.13251563  0.21647167     0.09200
O207        O  0.54644685  0.97874542  0.99051643    -0.70800
O208        O  0.44703525  0.97751351  0.01538207    -0.71800
O209        O  0.48443958  0.97621282  0.95319454    -0.60400
O210        O  0.50898425  0.98016101  0.05280959    -0.68800
O211        O  0.50741265  0.03701923  0.05087863    -0.68400
O212        O  0.48299826  0.03308326  0.95145836    -0.59700
O213        O  0.44551239  0.03437943  0.01348316    -0.72200
O214        O  0.54490103  0.03560886  0.98870069    -0.70900
Cu215      Cu  0.49678735  0.97612743  0.00306662     1.04600
Cu216      Cu  0.49515582  0.03702944  0.00107703     1.04300
C217        C  0.56109619  0.00736128  0.98534545     0.95400
C218        C  0.43080881  0.00576576  0.01848162     0.94500
C219        C  0.47981235  0.00410599  0.93681221     0.86600
C220        C  0.51207393  0.00921415  0.06737026     0.92900
N221        N  0.78563654  0.26350165  0.05810729    -0.25200
N222        N  0.81239857  0.27769743  0.07334517    -0.33000
C223        C  0.80760140  0.27883520  0.10749686     0.03200
C224        C  0.77647603  0.26437960  0.11533965     0.09200
C225        C  0.76333343  0.25449949  0.08334078    -0.03900
H226        H  0.82608681  0.28882269  0.12550516     0.09900
H227        H  0.73914486  0.24192876  0.07887936     0.11100
Cu228      Cu  0.85581943  0.29584333  0.04950978     0.44200
Cu229      Cu  0.78149289  0.25911394  0.00248417     0.42000
Cu230      Cu  0.85173073  0.30232126  0.96051524     0.43900
N231        N  0.89345496  0.31993607  0.02161285    -0.32600
N232        N  0.89147248  0.32236639  0.98796577    -0.26800
C233        C  0.91585484  0.34349871  0.97657867    -0.02900
C234        C  0.93410223  0.35483137  0.00449399     0.09300
C235        C  0.91924189  0.33967305  0.03275853     0.03100
H236        H  0.91799495  0.35239044  0.95040429     0.10700
H237        H  0.92455476  0.34509719  0.05942585     0.09800
N238        N  0.81226064  0.28120684  0.93349590    -0.34000
N239        N  0.78659622  0.26382691  0.94698802    -0.26200
C240        C  0.76737310  0.25218257  0.92031176    -0.01400
C241        C  0.78161144  0.26343590  0.88916710     0.07200
C242        C  0.80999261  0.28167432  0.89912371     0.05300
H243        H  0.74466598  0.23673805  0.92315940     0.10400
H244        H  0.82855225  0.29369967  0.88253076     0.09200
C245        C  0.71196221  0.74198520  0.27629642     0.47600
H246        H  0.69485426  0.72700466  0.29329639    -0.01500
C247        C  0.75240471  0.77717913  0.23659946     0.47600
H248        H  0.76947817  0.79222995  0.21966284    -0.01500
C249        C  0.69555059  0.77569468  0.26334725    -0.15100
C250        C  0.74581633  0.75261517  0.29396564    -0.14900
C251        C  0.72310494  0.72212627  0.24375852    -0.15300
C252        C  0.71792321  0.79573352  0.24469676    -0.15300
C253        C  0.76842221  0.76888668  0.27215302    -0.14800
C254        C  0.74227421  0.74170283  0.22135222    -0.15100
N255        N  0.72280309  0.45213156  0.23613017    -0.25200
N256        N  0.69909598  0.43732390  0.21703828    -0.33000
C257        C  0.70335421  0.40311194  0.21698855     0.03200
C258        C  0.73093337  0.39460335  0.23743652     0.09200
C259        C  0.74258421  0.42648744  0.24944656    -0.03900
H260        H  0.68616806  0.38549563  0.20442836     0.09900
H261        H  0.76363606  0.43049648  0.26697959     0.11100
Cu262      Cu  0.65784203  0.46233516  0.19575895     0.44200
Cu263      Cu  0.72384681  0.50792194  0.24174857     0.42000
Cu264      Cu  0.64179583  0.54865261  0.21779508     0.43900
N265        N  0.61396090  0.48783649  0.18138100    -0.32600
N266        N  0.60736226  0.51982070  0.19015826    -0.26800
C267        C  0.57922300  0.53060818  0.17336394    -0.12300
C268        C  0.56761718  0.50385750  0.15346701     0.09300
C269        C  0.59019945  0.47721698  0.15901610     0.03100
H270        H  0.56996769  0.55676029  0.17312422     0.10700
H271        H  0.59111488  0.45302305  0.14553944     0.09800
N272        N  0.68408991  0.57637816  0.23274284    -0.34000
N273        N  0.71452952  0.56329928  0.24050413    -0.26200
C274        C  0.73595972  0.59023979  0.24557758    -0.01400
C275        C  0.71808591  0.62125673  0.24060982     0.07200
C276        C  0.68529057  0.61083612  0.23262898     0.05300
H277        H  0.76280694  0.58765575  0.25195543     0.10400
H278        H  0.66370079  0.62707489  0.22625008     0.09200
C279        C  0.76704407  0.23575184  0.23112722     0.47600
H280        H  0.78053643  0.21763849  0.21373745    -0.01500
C281        C  0.73594891  0.27843840  0.27211597     0.47600
H282        H  0.72253184  0.29653729  0.28957586    -0.01500
C283        C  0.75942204  0.27093294  0.21424991    -0.15100
C284        C  0.73184104  0.22243206  0.24386953    -0.14900
C285        C  0.78807543  0.24445375  0.26369669    -0.15300
C286        C  0.74495740  0.29445236  0.23670525    -0.15300
C287        C  0.71432118  0.24632509  0.26341016    -0.14800
C288        C  0.77039431  0.26467558  0.28681667    -0.15100
N289        N  0.55590046  0.23870397  0.27259960    -0.25200
N290        N  0.56894455  0.23225790  0.30332574    -0.33000
C291        C  0.60341215  0.23287658  0.30211799     0.03200
C292        C  0.61377490  0.23985499  0.26902110     0.09200
C293        C  0.58281588  0.24333503  0.25091315    -0.03900
H294        H  0.61974784  0.22732652  0.32382092     0.09900
H295        H  0.58024568  0.24856515  0.22380510     0.11100
Cu296      Cu  0.54137085  0.21810389  0.34615974     0.44200
Cu297      Cu  0.50074795  0.23979363  0.26333177     0.42000
Cu298      Cu  0.45322815  0.20447223  0.33535139     0.43900
N299        N  0.51224599  0.19329414  0.38253602    -0.32600
N300        N  0.47922054  0.18791692  0.37810831    -0.26800
C301        C  0.46789994  0.16682410  0.40271720    -0.02900
C302        C  0.49520105  0.15860677  0.42360149     0.09300
C303        C  0.52301410  0.17557683  0.41009204     0.03100
H304        H  0.44247638  0.15600602  0.40353766     0.10700
H305        H  0.54950892  0.17284798  0.41778569     0.09800
N306        N  0.42930629  0.22320363  0.29229349    -0.34000
N307        N  0.44495021  0.23735808  0.26577442    -0.26200
C308        C  0.41996642  0.24914783  0.24433777    -0.01400
C309        C  0.38756911  0.24159371  0.25814223     0.07200
C310        C  0.39510381  0.22510107  0.28850717     0.05300
H311        H  0.42481199  0.26282025  0.22075090     0.10400
H312        H  0.37702527  0.21633349  0.30751745     0.09200
N313        N  0.06407823  0.23866616  0.72022932    -0.25200
N314        N  0.07755747  0.22869699  0.69071200    -0.33000
C315        C  0.11187326  0.22914566  0.69219914     0.03200
C316        C  0.12197888  0.24007477  0.72423890     0.09200
C317        C  0.09078872  0.24590702  0.74151828    -0.03900
H318        H  0.12815141  0.22178377  0.67100607     0.09900
H319        H  0.08793915  0.25490548  0.76759416     0.11100
Cu320      Cu  0.05116836  0.21363884  0.64802889     0.44200
Cu321      Cu  0.00861225  0.24071976  0.72683076     0.42000
Cu322      Cu  0.96293598  0.21621118  0.64653107     0.43900
N323        N  0.02431660  0.19378630  0.60768394    -0.32600
N324        N  0.99059083  0.19463699  0.60687406    -0.26800
C325        C  0.97965374  0.17448565  0.58123280    -0.02900
C326        C  0.00809621  0.16059266  0.56522951     0.09300
C327        C  0.03597620  0.17318925  0.58268610     0.03100
H328        H  0.95319193  0.16762722  0.57698039     0.10700
H329        H  0.06240286  0.16517994  0.57985548     0.09800
N330        N  0.93842484  0.23012805  0.69137174    -0.34000
N331        N  0.95310207  0.23840111  0.72086798    -0.26200
C332        C  0.92739128  0.24383133  0.74390215    -0.01400
C333        C  0.89553417  0.23852634  0.72803581     0.07200
C334        C  0.90415614  0.23001106  0.69474847     0.05300
H335        H  0.93140627  0.25097706  0.77038146     0.10400
H336        H  0.88686442  0.22368209  0.67409880     0.09200
O337        O  0.97579343  0.02219651  0.44795603    -0.70800
O338        O  0.97227985  0.99265884  0.54600845    -0.71800
O339        O  0.97718421  0.05607167  0.51180309    -0.60400
O340        O  0.97047041  0.95851301  0.48231187    -0.68800
O341        O  0.02724789  0.95379523  0.48298353    -0.68400
O342        O  0.03400086  0.05188282  0.51272439    -0.59700
O343        O  0.02908859  0.98815739  0.54676680    -0.72200
O344        O  0.03259971  0.01773836  0.44878769    -0.70900
Cu345      Cu  0.97194823  0.00748838  0.49694471     1.04600
Cu346      Cu  0.03278426  0.00269980  0.49779124     1.04300
C347        C  0.00480255  0.02515113  0.43325445     0.95400
C348        C  0.00013776  0.98567764  0.56164310     0.94500
C349        C  0.00650594  0.06918289  0.51712339     0.86600
C350        C  0.99770542  0.94083191  0.47820669     0.92900
N351        N  0.23976349  0.28605958  0.54376558    -0.25200
N352        N  0.21958947  0.30897815  0.55870631    -0.33000
C353        C  0.22038277  0.30534978  0.59293903     0.03200
C354        C  0.24242807  0.27898580  0.60128767     0.09200
C355        C  0.25447897  0.26730219  0.56933053    -0.03900
H356        H  0.20700979  0.32210367  0.61057078     0.09900
H357        H  0.27294778  0.24697381  0.56519463     0.11100
Cu358      Cu  0.19463161  0.34829804  0.53441260     0.44200
Cu359      Cu  0.24482770  0.28432353  0.48814424     0.42000
Cu360      Cu  0.20023816  0.35704217  0.44593370     0.43900
N361        N  0.17505125  0.39021355  0.50955932    -0.32600
N362        N  0.17726294  0.39378903  0.47604093    -0.26800
C363        C  0.15968709  0.42188198  0.46656170    -0.02900
C364        C  0.14619108  0.43663743  0.49577312     0.09300
C365        C  0.15613681  0.41588673  0.52255924     0.03100
H366        H  0.15495433  0.42943294  0.44029586     0.10700
H367        H  0.14815473  0.41779716  0.54905691     0.09800
N368        N  0.22307251  0.31751648  0.41939475    -0.34000
N369        N  0.24044542  0.29157059  0.43292702    -0.26200
C370        C  0.25266080  0.27247798  0.40634813    -0.01400
C371        C  0.24171633  0.28689453  0.37521711     0.07200
C372        C  0.22314064  0.31536449  0.38498418     0.05300
H373        H  0.26815805  0.24963613  0.40929374     0.10400
H374        H  0.21115773  0.33394766  0.36822634     0.09200
N375        N  0.28399312  0.06419360  0.76173862    -0.25200
N376        N  0.31279874  0.07828294  0.77262646    -0.33000
C377        C  0.31033220  0.11265344  0.77163076     0.03200
C378        C  0.27837142  0.12204232  0.75946578     0.09200
C379        C  0.26232856  0.09041989  0.75337049    -0.03900
H380        H  0.33075534  0.12953790  0.77933142     0.09900
H381        H  0.23671476  0.08694835  0.74347095     0.11100
Cu382      Cu  0.35566506  0.05206331  0.78947151     0.44200
Cu383      Cu  0.27781441  0.00849945  0.75988913     0.42000
Cu384      Cu  0.35618841  0.96266838  0.78574090     0.43900
N385        N  0.39527635  0.02315800  0.80942670    -0.32600
N386        N  0.39550005  0.98945218  0.80784599    -0.26800
C387        C  0.42052795  0.97718124  0.82809765    -0.02900
C388        C  0.43688218  0.00462757  0.84292242     0.09300
C389        C  0.42024643  0.03339225  0.83068876     0.03100
H390        H  0.42392766  0.95044320  0.83452266     0.10700
H391        H  0.42346076  0.05942144  0.83952533     0.09800
N392        N  0.31232527  0.93784808  0.77114224    -0.34000
N393        N  0.28299684  0.95266940  0.76236557    -0.26200
C394        C  0.26016016  0.92699072  0.75681370    -0.01400
C395        C  0.27614754  0.89504988  0.76237316     0.07200
C396        C  0.30917043  0.90359710  0.77137978     0.05300
H397        H  0.23372860  0.93105696  0.74950215     0.10400
H398        H  0.32962732  0.88623620  0.77849748     0.09200
C399        C  0.24001884  0.24079831  0.75830487     0.47600
H400        H  0.22376171  0.22527259  0.77562085    -0.01500
C401        C  0.27832058  0.27735115  0.71762099     0.47600
H402        H  0.29463943  0.29286348  0.70032616    -0.01500
C403        C  0.27407559  0.22257678  0.74805808    -0.15100
C404        C  0.22230365  0.25010327  0.72379057    -0.14900
C405        C  0.25098831  0.27576957  0.77405921    -0.15300
C406        C  0.29544719  0.24338721  0.72909642    -0.15300
C407        C  0.24376786  0.26697084  0.70128730    -0.14800
C408        C  0.26870261  0.29616477  0.75121118    -0.15100
N409        N  0.56427308  0.23897648  0.73081671    -0.25200
N410        N  0.57807423  0.21010167  0.71940719    -0.33000
C411        C  0.61231489  0.21117211  0.72133100     0.03200
C412        C  0.62211256  0.24223113  0.73467342     0.09200
C413        C  0.59079644  0.25946021  0.74038451    -0.03900
H414        H  0.62879724  0.19044564  0.71304390     0.09900
H415        H  0.58773616  0.28497137  0.75074431     0.11100
Cu416      Cu  0.55291753  0.16817540  0.70113799     0.44200
Cu417      Cu  0.50871909  0.24606348  0.73137504     0.42000
Cu418      Cu  0.46693344  0.16387859  0.71154014     0.43900
N419        N  0.52660212  0.12579382  0.68574407    -0.32600
N420        N  0.49337540  0.12369966  0.69082729    -0.26800
C421        C  0.48109490  0.09677460  0.67355150    -0.02900
C422        C  0.50820023  0.08118895  0.65701202     0.09300
C423        C  0.53670767  0.10021915  0.66508259     0.03100
H424        H  0.45415317  0.09163378  0.66983648     0.10700
H425        H  0.56192106  0.09805063  0.65374617     0.09800
N426        N  0.44059100  0.20839612  0.71980902    -0.34000
N427        N  0.45348900  0.23886912  0.72679045    -0.26200
C428        C  0.42638550  0.26089665  0.72950468    -0.01400
C429        C  0.39567046  0.24310782  0.72369348     0.07200
C430        C  0.40637713  0.21001725  0.71761147     0.05300
H431        H  0.42863669  0.28781645  0.73547078     0.10400
H432        H  0.39061816  0.18806813  0.71210162     0.09200
C433        C  0.73956276  0.27485744  0.73490247     0.47600
H434        H  0.72255995  0.29199080  0.71976566    -0.01500
C435        C  0.77966229  0.23446536  0.77038521     0.47600
H436        H  0.79675685  0.21740238  0.78552810    -0.01500
C437        C  0.77288788  0.26444170  0.71553216    -0.15100
C438        C  0.75180648  0.29096037  0.76934239    -0.14900
C439        C  0.72244625  0.24045117  0.74529511    -0.15300
C440        C  0.79523829  0.24551913  0.73550680    -0.15300
C441        C  0.77048674  0.26820786  0.78921714    -0.14800
C442        C  0.74468928  0.21807796  0.76173675    -0.15100
N443        N  0.73532889  0.44907731  0.78023534    -0.25200
N444        N  0.72852391  0.43457901  0.81016097    -0.33000
C445        C  0.73076775  0.40031716  0.80770927     0.03200
C446        C  0.73937185  0.39135714  0.77455568     0.09200
C447        C  0.74209001  0.42313982  0.75774594    -0.03900
H448        H  0.72551816  0.38318741  0.82878351     0.09900
H449        H  0.74835221  0.42690838  0.73100873     0.11100
Cu450      Cu  0.71262742  0.45932931  0.85399713     0.44200
Cu451      Cu  0.73382279  0.50480450  0.77382964     0.42000
Cu452      Cu  0.70482196  0.54782471  0.85245964     0.43900
N453        N  0.68789474  0.48562506  0.89251463    -0.32600
N454        N  0.68519028  0.51925617  0.89191330    -0.26800
C455        C  0.66293354  0.52940500  0.91613130    -0.02900
C456        C  0.65115824  0.50065556  0.93271805     0.09300
C457        C  0.66727537  0.47325339  0.91709710     0.03100
H458        H  0.65335329  0.55529748  0.91892925     0.10700
H459        H  0.66181255  0.44640709  0.92084004     0.09800
N460        N  0.71901610  0.57414864  0.80920703    -0.34000
N461        N  0.72938796  0.56042149  0.77990441    -0.26200
C462        C  0.73584803  0.58694630  0.75814998    -0.01400
C463        C  0.72912831  0.61830150  0.77478969     0.07200
C464        C  0.71850251  0.60847636  0.80705816     0.05300
H465        H  0.74511526  0.58387278  0.73219448     0.10400
H466        H  0.71091726  0.62499486  0.82798635     0.09200
C467        C  0.76813272  0.77378909  0.77743922     0.47600
H468        H  0.78543269  0.78938906  0.79366556    -0.01500
C469        C  0.72746765  0.73711749  0.73934806     0.47600
H470        H  0.71010832  0.72154778  0.72316443    -0.01500
C471        C  0.73394675  0.79223291  0.76877125    -0.15100
C472        C  0.78396667  0.76395512  0.74219878    -0.14900
C473        C  0.75763812  0.73945646  0.79434941    -0.15300
C474        C  0.71127626  0.77170701  0.75114922    -0.15300
C475        C  0.76136132  0.74696231  0.72100085    -0.14800
C476        C  0.73866254  0.71874100  0.77290082    -0.15100
N477        N  0.55327706  0.77846293  0.73861571    -0.25200
N478        N  0.56747872  0.79721771  0.71427405    -0.33000
C479        C  0.60179343  0.79620206  0.71676811     0.03200
C480        C  0.61097498  0.77545758  0.74384563     0.09200
C481        C  0.57940328  0.76445180  0.75718238    -0.03900
H482        H  0.61887142  0.80819064  0.69861822     0.09900
H483        H  0.57591135  0.74687740  0.77828832     0.11100
Cu484      Cu  0.54172370  0.81912248  0.67404096     0.44200
Cu485      Cu  0.49773130  0.77336818  0.74141685     0.42000
Cu486      Cu  0.45850752  0.79093734  0.65741235     0.43900
N487        N  0.51559718  0.83283433  0.63049918    -0.32600
N488        N  0.48460987  0.82153147  0.62355584    -0.26800
C489        C  0.47252365  0.83788215  0.59571015    -0.02900
C490        C  0.49750955  0.86009598  0.58462252     0.09300
C491        C  0.52439215  0.85640748  0.60719729     0.03100
H492        H  0.44661941  0.83584237  0.58612285     0.10700
H493        H  0.54748521  0.87152877  0.60820285     0.09800
N494        N  0.43043872  0.77788673  0.69996412    -0.34000
N495        N  0.44274482  0.77350654  0.73132697    -0.26200
C496        C  0.41527405  0.77086601  0.75268146    -0.01400
C497        C  0.38479611  0.77359628  0.73361585     0.07200
C498        C  0.39599866  0.77794079  0.70039278     0.05300
H499        H  0.41713689  0.76784020  0.78017955     0.10400
H500        H  0.38030813  0.78264183  0.67802845     0.09200
C501        C  0.23263920  0.78161743  0.77045633     0.47600
H502        H  0.22001153  0.79974200  0.78847024    -0.01500
C503        C  0.26177863  0.73897671  0.72802057     0.47600
H504        H  0.27440418  0.72090036  0.70995733    -0.01500
C505        C  0.21045405  0.77351689  0.73848197    -0.15100
C506        C  0.26747997  0.79465144  0.75653362    -0.14900
C507        C  0.24045298  0.74606868  0.78670565    -0.15300
C508        C  0.22710009  0.75332483  0.71461758    -0.15300
C509        C  0.28417650  0.77053950  0.73663894    -0.14800
C510        C  0.25354244  0.72266401  0.76332834    -0.15100
N511        N  0.03776372  0.78231749  0.27556112    -0.25200
N512        N  0.05196420  0.78593280  0.30615333    -0.33000
C513        C  0.08622103  0.78642526  0.30363514     0.03200
C514        C  0.09557944  0.78279240  0.26971937     0.09200
C515        C  0.06397153  0.78012445  0.25249284    -0.03900
H516        H  0.10296618  0.78910466  0.32550586     0.09900
H517        H  0.06050678  0.77667143  0.22520418     0.11100
Cu518      Cu  0.02682710  0.79221866  0.35182019     0.44200
Cu519      Cu  0.98208168  0.78103993  0.27007177     0.42000
Cu520      Cu  0.93923293  0.79825530  0.35343695     0.43900
N521        N  0.00185137  0.81165057  0.39373205    -0.32600
N522        N  0.96824703  0.81471586  0.39422092    -0.26800
C523        C  0.95917868  0.83619635  0.41959430    -0.02900
C524        C  0.98869631  0.84699623  0.43572571     0.09300
C525        C  0.01527629  0.83099868  0.41870489     0.03100
H526        H  0.93367747  0.84665721  0.42297296     0.10700
H527        H  0.04224503  0.83674541  0.42106152     0.09800
N528        N  0.91316812  0.78739539  0.30888426    -0.34000
N529        N  0.92669302  0.78154251  0.27824625    -0.26200
C530        C  0.90004748  0.77656680  0.25623923    -0.01400
C531        C  0.86882513  0.77951528  0.27407353     0.07200
C532        C  0.87881843  0.78638119  0.30730343     0.05300
H533        H  0.90297999  0.77107375  0.22921640     0.10400
H534        H  0.86241290  0.79062441  0.32922856     0.09200
C535        C  0.25281424  0.74744854  0.26972399     0.47600
H536        H  0.26976027  0.73114783  0.28580908    -0.01500
C537        C  0.21270847  0.78578559  0.23210841     0.47600
H538        H  0.19571381  0.80204703  0.21600254    -0.01500
C539        C  0.21841310  0.75686627  0.28749027    -0.15100
C540        C  0.26900528  0.78228125  0.25964002    -0.14900
C541        C  0.24264799  0.73044831  0.23512327    -0.15300
C542        C  0.19614206  0.77481417  0.26643046    -0.15300
C543        C  0.24665878  0.80355230  0.24200176    -0.14800
C544        C  0.22382891  0.75210479  0.21421676    -0.15100
N545        N  0.26537621  0.46121864  0.22316529    -0.25200
N546        N  0.27277083  0.44882463  0.19239563    -0.33000
C547        C  0.27348135  0.41443851  0.19288248     0.03200
C548        C  0.26619043  0.40304256  0.22553250     0.09200
C549        C  0.26106844  0.43362684  0.24419735    -0.03900
H550        H  0.27927384  0.39898132  0.17063533     0.09900
H551        H  0.25468773  0.43544731  0.27111960     0.11100
Cu552      Cu  0.28459436  0.47660039  0.14938003     0.44200
Cu553      Cu  0.26252168  0.51675997  0.23219276     0.42000
Cu554      Cu  0.29107056  0.56382668  0.15557240     0.43900
N555        N  0.30645358  0.50480827  0.11087641    -0.32600
N556        N  0.30937130  0.53825392  0.11352210    -0.26800
C557        C  0.33026591  0.54967460  0.08878007    -0.02900
C558        C  0.34080278  0.52186315  0.06964181     0.09300
C559        C  0.32545146  0.49376830  0.08435984     0.03100
H560        H  0.33986457  0.57553482  0.08718193     0.10700
H561        H  0.33068855  0.46713832  0.07870186     0.09800
N562        N  0.27372420  0.58770368  0.19896815    -0.34000
N563        N  0.26320729  0.57285425  0.22758878    -0.26200
C564        C  0.25394744  0.59867775  0.24939353    -0.01400
C565        C  0.25880663  0.63061198  0.23326625     0.07200
C566        C  0.27150277  0.62189410  0.20147970     0.05300
H567        H  0.24399848  0.59472967  0.27495348     0.10400
H568        H  0.27888645  0.63912392  0.18115030     0.09200
N569        N  0.21145119  0.74447736  0.55676416    -0.25200
N570        N  0.18198984  0.73628968  0.57144372    -0.33000
C571        C  0.18511954  0.73664316  0.60578157     0.03200
C572        C  0.21820655  0.74538317  0.61439937     0.09200
C573        C  0.23427419  0.75016650  0.58252114    -0.03900
H574        H  0.16461250  0.73011975  0.62316711     0.09900
H575        H  0.26074681  0.75710135  0.57852844     0.11100
Cu576      Cu  0.13777548  0.72181718  0.54664718     0.44200
Cu577      Cu  0.21759084  0.74635974  0.50119409     0.42000
Cu578      Cu  0.13997719  0.71833599  0.45778340     0.43900
N579        N  0.09824231  0.70098591  0.51879442    -0.32600
N580        N  0.09919139  0.70000660  0.48503786    -0.26800
C581        C  0.07401976  0.67986420  0.47350834    -0.02900
C582        C  0.05640045  0.66759772  0.50146487     0.09300
C583        C  0.07241303  0.68128951  0.52985356     0.03100
H584        H  0.07139565  0.67158205  0.44717145     0.10700
H585        H  0.06820560  0.67436393  0.55636662     0.09800
N586        N  0.18287199  0.73335846  0.43167983    -0.34000
N587        N  0.21181741  0.74398487  0.44562603    -0.26200
C588        C  0.23332057  0.75180801  0.41926449    -0.01400
C589        C  0.21686368  0.74560265  0.38776914     0.07200
C590        C  0.18498467  0.73389708  0.39732782     0.05300
H591        H  0.25896759  0.76156337  0.42256084     0.10400
H592        H  0.16424513  0.72641092  0.38064862     0.09200
N593        N  0.05224384  0.78479043  0.73347355    -0.25200
N594        N  0.06561561  0.81484919  0.72560834    -0.33000
C595        C  0.10001589  0.81296327  0.72550925     0.03200
C596        C  0.11006330  0.78006520  0.73360912     0.09200
C597        C  0.07895804  0.76274457  0.73842343    -0.03900
H598        H  0.11646693  0.83409679  0.71886177     0.09900
H599        H  0.07615254  0.73597826  0.74480491     0.11100
Cu600      Cu  0.03852603  0.85768527  0.71119188     0.44200
Cu601      Cu  0.99691161  0.77756673  0.73573967     0.42000
Cu602      Cu  0.95024758  0.85004659  0.69779142     0.43900
N603        N  0.01045668  0.89507273  0.68689881    -0.32600
N604        N  0.97729917  0.89195763  0.68142327    -0.26800
C605        C  0.96682210  0.91692210  0.66018846    -0.02900
C606        C  0.99485744  0.93658397  0.65204412     0.09300
C607        C  0.02217714  0.92200752  0.66915820     0.03100
H608        H  0.94154720  0.91853086  0.64891363     0.10700
H609        H  0.04896567  0.92826156  0.66618005     0.09800
N610        N  0.92591033  0.80802414  0.71784038    -0.34000
N611        N  0.94120679  0.78185504  0.73323724    -0.26200
C612        C  0.91596533  0.76153160  0.74588376    -0.01400
C613        C  0.88378208  0.77550545  0.73743262     0.07200
C614        C  0.89165724  0.80491007  0.71964811     0.05300
H615        H  0.92050633  0.73847065  0.76055904     0.10400
H616        H  0.87373502  0.82378355  0.70997061     0.09200
N617        N  0.73958812  0.06098292  0.78493525    -0.25200
N618        N  0.72439225  0.07649864  0.81111227    -0.33000
C619        C  0.72571098  0.11073262  0.80727114     0.03200
C620        C  0.74293721  0.11835468  0.77735207     0.09200
C621        C  0.75162056  0.08602840  0.76391664    -0.03900
H622        H  0.71578512  0.12886029  0.82579042     0.09900
H623        H  0.76577481  0.08126148  0.74054518     0.11100
Cu624      Cu  0.70396633  0.05216090  0.85332651     0.44200
Cu625      Cu  0.74188123  0.00519251  0.78099054     0.42000
Cu626      Cu  0.70765972  0.96222343  0.85723310     0.43900
N627        N  0.68429309  0.02491683  0.89403603    -0.32600
N628        N  0.68612676  0.99123779  0.89568123    -0.26800
C629        C  0.66696260  0.98028252  0.92202609    -0.02900
C630        C  0.65256947  0.00854206  0.93771419     0.09300
C631        C  0.66389747  0.03642318  0.91932699     0.03100
H632        H  0.66111946  0.95372994  0.92706442     0.10700
H633        H  0.65529514  0.06266588  0.92196171     0.09800
N634        N  0.72397452  0.93582029  0.81453868    -0.34000
N635        N  0.73725712  0.94975068  0.78660873    -0.26200
C636        C  0.74575238  0.92350346  0.76516690    -0.01400
C637        C  0.73677226  0.89214103  0.78028399     0.07200
C638        C  0.72309320  0.90151569  0.81152853     0.05300
H639        H  0.75768347  0.92679397  0.74037381     0.10400
H640        H  0.71393956  0.88452811  0.83135165     0.09200
N641        N  0.05783713  0.23750373  0.26541072    -0.25200
N642        N  0.07366464  0.21238408  0.28199236    -0.33000
C643        C  0.10784856  0.21574168  0.27946655     0.03200
C644        C  0.11514954  0.24421697  0.25998170     0.09200
C645        C  0.08267549  0.25737759  0.25127473    -0.03900
H646        H  0.12610662  0.19761390  0.28990388     0.09900
H647        H  0.07766366  0.27960493  0.23550711     0.11100
Cu648      Cu  0.05023641  0.17102749  0.30445852     0.44200
Cu649      Cu  0.00197299  0.24113265  0.26365858     0.42000
Cu650      Cu  0.96146208  0.16244727  0.29359206     0.43900
N651        N  0.02422180  0.12834456  0.32068289    -0.32600
N652        N  0.99097877  0.12485834  0.31596926    -0.26800
C653        C  0.98039745  0.09643784  0.33202718    -0.02900
C654        C  0.00852013  0.08127997  0.34723164     0.09300
C655        C  0.03587174  0.10217566  0.33980103     0.03100
H656        H  0.95388911  0.08906488  0.33487343     0.10700
H657        H  0.06165550  0.10005512  0.34976799     0.09800
N658        N  0.93357306  0.20444489  0.27793259    -0.34000
N659        N  0.94663358  0.23390103  0.26761577    -0.26200
C660        C  0.91969068  0.25536746  0.26143229    -0.01400
C661        C  0.88872515  0.23834153  0.26806404     0.07200
C662        C  0.89913644  0.20618081  0.27848064     0.05300
H663        H  0.92223593  0.28152879  0.25282046     0.10400
H664        H  0.88290786  0.18539326  0.28661468     0.09200
C665        C  0.27124023  0.28415089  0.25781776     0.47600
H666        H  0.28824104  0.30004218  0.27407299    -0.01500
C667        C  0.23127512  0.24667379  0.21982834     0.47600
H668        H  0.21425116  0.23070392  0.20367340    -0.01500
C669        C  0.26039275  0.30200799  0.22391854    -0.15100
C670        C  0.28765802  0.24929695  0.24713925    -0.14900
C671        C  0.23713885  0.27465975  0.27569054    -0.15300
C672        C  0.24208038  0.28069714  0.20238453    -0.15300
C673        C  0.26525892  0.22841082  0.22958238    -0.14800
C674        C  0.21483284  0.25718132  0.25461479    -0.15100
N675        N  0.76179143  0.73211138  0.06401502    -0.25200
N676        N  0.77445996  0.70429220  0.07884508    -0.33000
C677        C  0.77216496  0.70672358  0.11312546     0.03200
C678        C  0.75727236  0.73764183  0.12165116     0.09200
C679        C  0.75112458  0.75328422  0.08972114    -0.03900
H680        H  0.78113404  0.68713121  0.13056833     0.09900
H681        H  0.73952714  0.77816374  0.08567337     0.11100
Cu682      Cu  0.79489542  0.66253518  0.05424072     0.44200
Cu683      Cu  0.76053084  0.73728029  0.00826412     0.42000
Cu684      Cu  0.78997457  0.65831054  0.96548846     0.43900
N685        N  0.81421746  0.62158735  0.02750889    -0.32600
N686        N  0.81186778  0.61966966  0.99386377    -0.26800
C687        C  0.83068063  0.59302645  0.98274894    -0.02900
C688        C  0.84530218  0.57747870  0.01095781     0.09300
C689        C  0.83457621  0.59625358  0.03892895     0.03100
H690        H  0.83614690  0.58765206  0.95608440     0.10700
H691        H  0.84351937  0.59380860  0.06507159     0.09800
N692        N  0.77480538  0.70134348  0.93909619    -0.34000
N693        N  0.76430071  0.73061818  0.95278152    -0.26200
C694        C  0.75780641  0.75240555  0.92624784    -0.01400
C695        C  0.76476008  0.73588443  0.89491710     0.07200
C696        C  0.77541780  0.70358915  0.90471700     0.05300
H697        H  0.74866689  0.77841030  0.92932256     0.10400
H698        H  0.78330034  0.68280339  0.88816076     0.09200
O699        O  0.50851477  0.48035055  0.04927176    -0.70800
O700        O  0.47718602  0.48226512  0.95162477    -0.71800
O701        O  0.54139712  0.47642038  0.98472320    -0.60400
O702        O  0.44429003  0.48608652  0.01609867    -0.68800
O703        O  0.44914946  0.54275523  0.01552680    -0.68400
O704        O  0.54626827  0.53308409  0.98421916    -0.59700
O705        O  0.48211631  0.53892415  0.95103030    -0.72200
O706        O  0.51337686  0.53701257  0.04868632    -0.70900
Cu707      Cu  0.49264308  0.47927185  0.00045431     1.04600
Cu708      Cu  0.49789576  0.53995822  0.99984702     1.04300
C709        C  0.51606945  0.50837785  0.06414878     0.95400
C710        C  0.47469178  0.51089084  0.93611320     0.94500
C711        C  0.55896403  0.50330531  0.97945508     0.86600
C712        C  0.43160430  0.51586346  0.02083415     0.92900
O713        O  0.46172463  0.99277881  0.45809818    -0.70800
O714        O  0.46963972  0.02846707  0.55373487    -0.71800
O715        O  0.46692422  0.05847345  0.48754158    -0.60400
O716        O  0.46429535  0.96284845  0.52431776    -0.68800
O717        O  0.52107183  0.95975186  0.52065447    -0.68400
O718        O  0.52369064  0.05528979  0.48393052    -0.59700
O719        O  0.52642347  0.02524410  0.54997105    -0.72200
O720        O  0.51852557  0.98966458  0.45460575    -0.70900
Cu721      Cu  0.46360355  0.01075980  0.50605622     1.04600
Cu722      Cu  0.52442533  0.00736445  0.50216933     1.04300
C723        C  0.48895990  0.98586058  0.44136578     0.95400
C724        C  0.49930707  0.03221594  0.56681438     0.94500
C725        C  0.49565733  0.07166037  0.47960446     0.86600
C726        C  0.49236553  0.94654156  0.52860422     0.92900
O727        O  0.98219605  0.46178753  0.46429290    -0.70800
O728        O  0.00930339  0.56045888  0.46876711    -0.71800
O729        O  0.04485866  0.49702157  0.46789229    -0.60400
O730        O  0.94652292  0.52540132  0.46470522    -0.68800
O731        O  0.94442323  0.52359149  0.52166702    -0.68400
O732        O  0.04280667  0.49522266  0.52485596    -0.59700
O733        O  0.00706108  0.55847267  0.52570756    -0.72200
O734        O  0.98014187  0.46037532  0.52125698    -0.70900
Cu735      Cu  0.99579554  0.51123412  0.46435294     1.04600
Cu736      Cu  0.99349571  0.50934461  0.52536259     1.04300
C737        C  0.97717194  0.44565788  0.49226853     0.95400
C738        C  0.01235675  0.57483061  0.49798356     0.94500
C739        C  0.05903910  0.49121480  0.49675540     0.86600
C740        C  0.93029773  0.52949482  0.49278251     0.92900
C741        C  0.15019176  0.25571294  0.24873922    -0.14300
C742        C  0.17942824  0.24657059  0.26551895    -0.29500
H743        H  0.15196617  0.27231569  0.22650997     0.14700
H744        H  0.17748161  0.23229823  0.28928973     0.15300
C745        C  0.02313495  0.60960560  0.49980626    -0.11200
C746        C  0.03589529  0.63744922  0.50117390    -0.12700
C747        C  0.26370162  0.36606818  0.23701823    -0.14300
C748        C  0.26783565  0.33899229  0.21516269    -0.29500
H749        H  0.25665992  0.36111295  0.26347152     0.14700
H750        H  0.27350485  0.34421543  0.18850025     0.15300
C751        C  0.39749632  0.51903876  0.03366259    -0.11200
C752        C  0.37031218  0.52081731  0.04798392    -0.12700
C753        C  0.22945964  0.75140928  0.35162645    -0.14300
C754        C  0.20912844  0.74681219  0.32363443    -0.29500
H755        H  0.25516115  0.76123404  0.34811273     0.14700
H756        H  0.18303085  0.73840132  0.32744707     0.15300
C757        C  0.25187793  0.66654707  0.24606452    -0.14300
C758        C  0.25186391  0.69429750  0.22478884    -0.29500
H759        H  0.24546945  0.67003663  0.27292010     0.14700
H760        H  0.25593554  0.69016753  0.19761723     0.15300
C761        C  0.13174332  0.78034247  0.25601951    -0.14300
C762        C  0.15973034  0.78301689  0.27674688    -0.29500
H763        H  0.13531610  0.77426517  0.22909572     0.14700
H764        H  0.15578415  0.78826624  0.30371376     0.15300
C765        C  0.17437751  0.78690369  0.73502838    -0.14300
C766        C  0.14622792  0.76644284  0.73512584    -0.29500
H767        H  0.17106532  0.81445920  0.73575243     0.14700
H768        H  0.14980868  0.73893515  0.73705694     0.15300
C769        C  0.21343982  0.74754833  0.67891518    -0.14300
C770        C  0.23302212  0.74813253  0.65000777    -0.29500
H771        H  0.18587343  0.74598970  0.67622920     0.14700
H772        H  0.26042257  0.75201654  0.65239574     0.15300
C773        C  0.32068154  0.77291454  0.72441880    -0.14300
C774        C  0.34819105  0.77407907  0.74592251    -0.29500
H775        H  0.32489310  0.76968584  0.69713478     0.14700
H776        H  0.34374084  0.77456044  0.77339574     0.15300
C777        C  0.49193731  0.91347642  0.54418058    -0.11200
C778        C  0.49344383  0.88763540  0.56081224    -0.12700
C779        C  0.67508117  0.78236389  0.74298598    -0.14300
C780        C  0.64690615  0.76467147  0.75315805    -0.29500
H781        H  0.67170718  0.80660484  0.72982543     0.14700
H782        H  0.65028057  0.74185285  0.76869401     0.15300
C783        C  0.76663657  0.72921990  0.83055312    -0.14300
C784        C  0.76082119  0.74907629  0.85871567    -0.29500
H785        H  0.77463087  0.70286844  0.83417701     0.14700
H786        H  0.75126072  0.77498645  0.85520057     0.15300
C787        C  0.72617908  0.82836930  0.77998636    -0.14300
C788        C  0.74301322  0.85618592  0.76760249    -0.29500
H789        H  0.70549475  0.83199339  0.79823006     0.14700
H790        H  0.76200762  0.85247324  0.74759015     0.15300
C791        C  0.81948738  0.77428695  0.73143014    -0.14300
C792        C  0.84853275  0.76397592  0.74785800    -0.29500
H793        H  0.82164395  0.78955410  0.70830833     0.14700
H794        H  0.84641852  0.74649127  0.76936535     0.15300
C795        C  0.73364674  0.65455863  0.76197103    -0.14300
C796        C  0.72919974  0.68252831  0.78247036    -0.29500
H797        H  0.74258927  0.65818898  0.73588237     0.14700
H798        H  0.72189091  0.67859069  0.80896113     0.15300
C799        C  0.62075822  0.49930456  0.95313678    -0.11200
C800        C  0.59318792  0.50018219  0.96682625    -0.12700
C801        C  0.73499433  0.18255252  0.77348345    -0.14300
C802        C  0.75233967  0.15352294  0.76450709    -0.29500
H803        H  0.71194188  0.18031245  0.78884554     0.14700
H804        H  0.77379623  0.15553685  0.74693717     0.15300
C805        C  0.74398684  0.32711189  0.78103437    -0.14300
C806        C  0.74396354  0.35544851  0.76059642    -0.29500
H807        H  0.74115645  0.33066268  0.80844223     0.14700
H808        H  0.74869080  0.35243119  0.73333859     0.15300
C809        C  0.50520217  0.05950303  0.62780893    -0.11200
C810        C  0.50233899  0.04535457  0.60070308    -0.12700
C811        C  0.65849101  0.25368213  0.74055531    -0.14300
C812        C  0.68559174  0.23160202  0.73832993    -0.29500
H813        H  0.66293677  0.28016502  0.74755743     0.14700
H814        H  0.68060385  0.20478927  0.73352791     0.15300
C815        C  0.33203983  0.23395861  0.72143244    -0.14300
C816        C  0.35907218  0.25545655  0.72547103    -0.29500
H817        H  0.33691110  0.20720507  0.71597140     0.14700
H818        H  0.35431364  0.28199410  0.73230603     0.15300
C819        C  0.26140384  0.85943687  0.76013851    -0.14300
C820        C  0.28097645  0.83042337  0.76188840    -0.29500
H821        H  0.23407297  0.85709938  0.75570324     0.14700
H822        H  0.30850170  0.83300964  0.76400467     0.15300
C823        C  0.26498246  0.15806655  0.75347186    -0.14300
C824        C  0.28428144  0.18661509  0.75861683    -0.29500
H825        H  0.23934840  0.16103485  0.74307888     0.14700
H826        H  0.31038869  0.18336536  0.76751264     0.15300
C827        C  0.24961296  0.27609486  0.33908834    -0.14300
C828        C  0.22910389  0.28433511  0.31212013    -0.29500
H829        H  0.27242852  0.26070202  0.33461406     0.14700
H830        H  0.20479861  0.29709587  0.31690794     0.15300
C831        C  0.25282055  0.26850010  0.63696745    -0.14300
C832        C  0.23381911  0.27644402  0.66517930    -0.29500
H833        H  0.27630840  0.25381554  0.64009783     0.14700
H834        H  0.20907325  0.28877283  0.66178659     0.15300
C835        C  0.11912484  0.46134327  0.49691581    -0.11200
C836        C  0.09302794  0.47771940  0.49739143    -0.12700
C837        C  0.99876147  0.97329019  0.59600448    -0.11200
C838        C  0.99716514  0.95883602  0.62310436    -0.12700
C839        C  0.00756188  0.05615154  0.37384383    -0.11200
C840        C  0.00633219  0.03929574  0.39955736    -0.12700
C841        C  0.99192415  0.87796525  0.45502625    -0.11200
C842        C  0.99491538  0.90606065  0.46719913    -0.12700
C843        C  0.15839011  0.24494830  0.73630282    -0.14300
C844        C  0.18574887  0.24171500  0.71479870    -0.29500
H845        H  0.16261093  0.25277587  0.76266029     0.14700
H846        H  0.18109448  0.23568078  0.68810954     0.15300
C847        C  0.85990734  0.24177982  0.74284298    -0.14300
C848        C  0.83112089  0.23702663  0.72376870    -0.29500
H849        H  0.85733233  0.24991760  0.76933632     0.14700
H850        H  0.83389292  0.23037027  0.69694006     0.15300
C851        C  0.00840845  0.13082073  0.54384228    -0.11200
C852        C  0.00828857  0.10348428  0.52969125    -0.12700
C853        C  0.35243176  0.25179822  0.24553503    -0.14300
C854        C  0.32297662  0.23822386  0.25822042    -0.29500
H855        H  0.35072229  0.27102908  0.22551925     0.14700
H856        H  0.32445168  0.21751502  0.27667337     0.15300
C857        C  0.49630642  0.10477473  0.46400863    -0.11200
C858        C  0.49624076  0.13070503  0.44739439    -0.12700
C859        C  0.67815698  0.24250998  0.27645217    -0.14300
C860        C  0.65004799  0.24146915  0.25574428    -0.29500
H861        H  0.67464176  0.24403639  0.30398533     0.14700
H862        H  0.65370146  0.24259763  0.22817506     0.15300
C863        C  0.82419148  0.23143365  0.26855712    -0.14300
C864        C  0.85241103  0.25161671  0.26544899    -0.29500
H865        H  0.82739496  0.20405411  0.27179356     0.14700
H866        H  0.84877049  0.27865686  0.26009280     0.15300
C867        C  0.52940312  0.50754335  0.09825158    -0.11200
C868        C  0.54461137  0.50631429  0.12501695    -0.12700
C869        C  0.74213414  0.35881333  0.24715251    -0.14300
C870        C  0.73620383  0.33095557  0.22697549    -0.29500
H871        H  0.75552750  0.35533103  0.27129725     0.14700
H872        H  0.72539121  0.33498229  0.20164918     0.15300
C873        C  0.75099932  0.73008909  0.18553423    -0.14300
C874        C  0.75014954  0.75069205  0.15735030    -0.29500
H875        H  0.75557827  0.70291164  0.18206109     0.14700
H876        H  0.74302851  0.77742297  0.16034836     0.15300
C877        C  0.71126278  0.68592388  0.23748738    -0.14300
C878        C  0.73116832  0.65758452  0.24288154    -0.29500
H879        H  0.68432569  0.68280580  0.23166296     0.14700
H880        H  0.75777396  0.66112519  0.25005750     0.15300
C881        C  0.80485235  0.77664274  0.28243200    -0.14300
C882        C  0.83256019  0.77555255  0.26117841    -0.29500
H883        H  0.80913448  0.78053602  0.30958436     0.14700
H884        H  0.82879461  0.77015816  0.23415057     0.15300
C885        C  0.77068749  0.25622138  0.85286247    -0.14300
C886        C  0.78124591  0.27522990  0.82560424    -0.29500
H887        H  0.75320163  0.23517601  0.84847718     0.14700
H888        H  0.79654175  0.29787731  0.83006463     0.15300
C889        C  0.76256875  0.25820063  0.15074570    -0.14300
C890        C  0.76968343  0.27887534  0.17787952    -0.29500
H891        H  0.74644943  0.23600918  0.15466086     0.14700
H892        H  0.78335921  0.30256016  0.17342468     0.15300
C893        C  0.59580704  0.00775258  0.97374023    -0.11200
C894        C  0.62317456  0.00816633  0.95962921    -0.12700
C895        C  0.45697040  0.00327402  0.87356070    -0.11200
C896        C  0.46948797  0.00301638  0.90170304    -0.12700
C897        C  0.71841354  0.18686768  0.23705955    -0.14300
C898        C  0.73807841  0.15789433  0.23613337    -0.29500
H899        H  0.69085121  0.18425103  0.23558657     0.14700
H900        H  0.76552599  0.15994236  0.23992094     0.15300
C901        C  0.72913664  0.85970198  0.23831987    -0.14300
C902        C  0.70883513  0.83180700  0.23376867    -0.29500
H903        H  0.75508701  0.85599408  0.24764387     0.14700
H904        H  0.68269873  0.83585362  0.22530220     0.15300
C905        C  0.52237663  0.01068545  0.10248478    -0.11200
C906        C  0.53504202  0.01194320  0.13053626    -0.12700
C907        C  0.90180371  0.54113257  0.00851750    -0.11200
C908        C  0.87452882  0.55536094  0.01017454    -0.12700
C909        C  0.96959004  0.41152057  0.00327757    -0.11200
C910        C  0.95558061  0.38428968  0.00459747    -0.12700
C911        C  0.23122398  0.75499401  0.14998879    -0.14300
C912        C  0.21343427  0.74410685  0.17796508    -0.29500
H913        H  0.25499428  0.76871847  0.15390777     0.14700
H914        H  0.18994498  0.72986520  0.17462528     0.15300
C915        C  0.24031713  0.75703163  0.85091618    -0.14300
C916        C  0.23187403  0.73736502  0.82336197    -0.29500
H917        H  0.25575835  0.77970607  0.84705304     0.14700
H918        H  0.21891712  0.71326689  0.82772998     0.15300
C919        C  0.04394599  0.63641027  0.99448195    -0.11200
C920        C  0.03016063  0.60903984  0.99476002    -0.12700
C921        C  0.74862254  0.74631792  0.65723903    -0.14300
C922        C  0.76929262  0.73809413  0.68417910    -0.29500
H923        H  0.72512487  0.76051303  0.66209786     0.14700
H924        H  0.79410423  0.72651236  0.67904726     0.15300
C925        C  0.73753407  0.75442500  0.35839556    -0.14300
C926        C  0.75439651  0.74253260  0.33019293    -0.29500
H927        H  0.71732948  0.77337474  0.35524130     0.14700
H928        H  0.77624678  0.72556949  0.33351883     0.15300
C929        C  0.87073575  0.56025459  0.49373060    -0.11200
C930        C  0.89646433  0.54337177  0.49217506    -0.12700
C931        C  0.23819942  0.86788600  0.23969927    -0.14300
C932        C  0.25552667  0.83909915  0.23002875    -0.29500
H933        H  0.21747292  0.86570074  0.25810529     0.14700
H934        H  0.27786946  0.84150916  0.21368291     0.15300
C935        C  0.36827792  0.00591510  0.04293656    -0.11200
C936        C  0.39591887  0.00545486  0.02941798    -0.12700
C937        C  0.25183649  0.16528565  0.23083327    -0.14300
C938        C  0.27249323  0.19148389  0.22100786    -0.29500
H939        H  0.22979215  0.17085688  0.24691191     0.14700
H940        H  0.29607838  0.18576476  0.20737691     0.15300
C941        C  0.24368800  0.28684024  0.81035958    -0.14300
C942        C  0.24584857  0.26617466  0.83843590    -0.29500
H943        H  0.23923841  0.31398379  0.81414100     0.14700
H944        H  0.25260108  0.23939425  0.83507733     0.15300
C945        C  0.12507375  0.46245859  0.98585317    -0.11200
C946        C  0.09834899  0.47771311  0.98778136    -0.12700
C947        C  0.23349159  0.29012325  0.16583907    -0.14300
C948        C  0.23910649  0.26946496  0.13816152    -0.29500
H949        H  0.22559010  0.31639113  0.16153121     0.14700
H950        H  0.24861454  0.24362844  0.14231871     0.15300
C951        C  0.26606346  0.36037958  0.74283683    -0.14300
C952        C  0.27991536  0.33234576  0.75851907    -0.29500
H953        H  0.24500781  0.35677445  0.72504775     0.14700
H954        H  0.29947405  0.33576530  0.77794618     0.15300
C955        C  0.25421272  0.65883684  0.75066561    -0.14300
C956        C  0.26136797  0.68572910  0.77171525    -0.29500
H957        H  0.24024997  0.66346577  0.72703683     0.14700
H958        H  0.27282150  0.68058906  0.79655330     0.15300
C959        C  0.46211471  0.51164624  0.90174506    -0.11200
C960        C  0.44811061  0.51239023  0.87432918    -0.12700
C961        C  0.33269151  0.77024327  0.26720272    -0.14300
C962        C  0.30542756  0.79217005  0.26722152    -0.29500
H963        H  0.32854276  0.74323904  0.26234931     0.14700
H964        H  0.31006469  0.81931022  0.27016284     0.15300
C965        C  0.63153303  0.76542434  0.27006873    -0.14300
C966        C  0.65921615  0.78646683  0.27106556    -0.29500
H967        H  0.63531582  0.73839482  0.26476084     0.14700
H968        H  0.65504695  0.81360141  0.27496228     0.15300
C969        C  0.48508827  0.96006171  0.37943719    -0.11200
C970        C  0.48641054  0.97307911  0.40725761    -0.12700
C971        C  0.76361006  0.26745063  0.65080824    -0.14300
C972        C  0.78195549  0.27534607  0.67946548    -0.29500
H973        H  0.73898663  0.25505232  0.65374401     0.14700
H974        H  0.80707823  0.28655114  0.67635195     0.15300
C975        C  0.78289251  0.27077650  0.32294698    -0.14300
C976        C  0.76252656  0.27077418  0.35138887    -0.29500
H977        H  0.81040080  0.27192891  0.32636279     0.14700
H978        H  0.73512427  0.26741052  0.34832240     0.15300
C979        C  0.96714694  0.41061375  0.49144871    -0.11200
C980        C  0.95553481  0.38227214  0.49298220    -0.12700
loop_ 
_geom_bond_atom_site_label_1 
_geom_bond_atom_site_label_2 
_geom_bond_distance 
_geom_bond_site_symmetry_2 
_ccdc_geom_bond_type 
N1            N2   1.325       .  A
N1            C5   1.364       .  A
N1           Cu9   2.191       .  S
N2            C3   1.344       .  A
N2           Cu8   2.050       .  S
C3            C4   1.380       .  A
C3            H6   1.081       .  S
C4            C5   1.410       .  A
C4          C976   1.512       .  S
C5            H7   1.082       .  S
Cu8          N11   2.048       .  S
Cu9          N19   2.191       .  S
Cu10         N12   2.063       .  S
Cu10         N18   2.065       .  S
N11          N12   1.319       .  A
N11          C15   1.342       .  A
N12          C13   1.343       .  A
C13          C14   1.381       .  A
C13          H16   1.082       .  S
C14          C15   1.378       .  A
C14         C980   1.429       .  S
C15          H17   1.082       .  S
N18          N19   1.326       .  A
N18          C22   1.346       .  A
N19          C20   1.364       .  A
C20          C21   1.409       .  A
C20          H23   1.082       .  S
C21          C22   1.383       .  A
C21         C971   1.516       .  S
C22          H24   1.081       .  S
N25          N26   1.325       .  A
N25          C29   1.364       .  A
N25         Cu33   2.182       .  S
N26          C27   1.341       .  A
N26         Cu32   2.048       .  S
C27          C28   1.379       .  A
C27          H30   1.081       .  S
C28          C29   1.408       .  A
C28         C965   1.509       .  S
C29          H31   1.082       .  S
Cu32         N35   2.047       .  S
Cu33         N43   2.181       .  S
Cu34         N36   2.045       .  S
Cu34         N42   2.046       .  S
N35          N36   1.316       .  A
N35          C39   1.342       .  A
N36          C37   1.342       .  A
C37          C38   1.378       .  A
C37          H40   1.082       .  S
C38          C39   1.379       .  A
C38         C969   1.427       .  S
C39          H41   1.082       .  S
N42          N43   1.325       .  A
N42          C46   1.341       .  A
N43          C44   1.364       .  A
C44          C45   1.408       .  A
C44          H47   1.082       .  S
C45          C46   1.378       .  A
C45         C961   1.507       .  S
C46          H48   1.081       .  S
N49          N50   1.327       .  A
N49          C53   1.363       .  A
N49         Cu57   2.192       .  S
N50          C51   1.348       .  A
N50         Cu56   2.065       .  S
C51          C52   1.380       .  A
C51          H54   1.082       .  S
C52          C53   1.407       .  A
C52         C951   1.510       .  S
C53          H55   1.082       .  S
Cu56         N59   2.063       .  S
Cu57         N67   2.191       .  S
Cu58         N60   2.047       .  S
Cu58         N66   2.045       .  S
N59          N60   1.319       .  A
N59          C63   1.344       .  A
N60          C61   1.341       .  A
C61          C62   1.377       .  A
C61          H64   1.082       .  S
C62          C63   1.381       .  A
C62         C960   1.430       .  S
C63          H65   1.082       .  S
N66          N67   1.324       .  A
N66          C70   1.344       .  A
N67          C68   1.365       .  A
C68          C69   1.410       .  A
C68          H71   1.082       .  S
C69          C70   1.377       .  A
C69         C955   1.508       .  S
C70          H72   1.082       .  S
N73          N74   1.325       .  A
N73          C77   1.365       .  A
N73         Cu81   2.190   1_554  S
N74          C75   1.343       .  A
N74         Cu80   2.051       .  S
C75          C76   1.379       .  A
C75          H78   1.081       .  S
C76          C77   1.410       .  A
C76         C948   1.512       .  S
C77          H79   1.082       .  S
Cu80         N83   2.050       .  S
Cu81         N91   2.189       .  S
Cu82         N84   2.052       .  S
Cu82         N90   2.052       .  S
N83          N84   1.317   1_554  A
N83          C87   1.342       .  A
N84          C85   1.344       .  A
C85          C86   1.380       .  A
C85          H88   1.082       .  S
C86          C87   1.379   1_556  A
C86         C945   1.429       .  S
C87          H89   1.082       .  S
N90          N91   1.326       .  A
N90          C94   1.343       .  A
N91          C92   1.365       .  A
C92          C93   1.409       .  A
C92          H95   1.082       .  S
C93          C94   1.378       .  A
C93         C942   1.510       .  S
C94          H96   1.081       .  S
N97          N98   1.325       .  A
N97         C101   1.363       .  A
N97        Cu105   2.185       .  S
N98          C99   1.345       .  A
N98        Cu104   2.051       .  S
C99         C100   1.377       .  A
C99         H102   1.082       .  S
C100        C101   1.407       .  A
C100        C937   1.506       .  S
C101        H103   1.082       .  S
Cu104       N107   2.051       .  S
Cu105       N115   2.186   1_545  S
Cu106       N108   2.058       .  S
Cu106       N114   2.059       .  S
N107        N108   1.318   1_545  A
N107        C111   1.342       .  A
N108        C109   1.344       .  A
C109        C110   1.381   1_565  A
C109        H112   1.082       .  S
C110        C111   1.379       .  A
C110        C935   1.430       .  S
C111        H113   1.082       .  S
N114        N115   1.326       .  A
N114        C118   1.346       .  A
N115        C116   1.363       .  A
C116        C117   1.407       .  A
C116        H119   1.082       .  S
C117        C118   1.379       .  A
C117        C931   1.508       .  S
C118        H120   1.082       .  S
N121        N122   1.326       .  A
N121        C125   1.363       .  A
N121       Cu129   2.187       .  S
N122        C123   1.346       .  A
N122       Cu128   2.060       .  S
C123        C124   1.379       .  A
C123        H126   1.082       .  S
C124        C125   1.407       .  A
C124        C921   1.509       .  S
C125        H127   1.082       .  S
Cu128       N131   2.060       .  S
Cu129       N139   2.186       .  S
Cu130       N132   2.044       .  S
Cu130       N138   2.044       .  S
N131        N132   1.318       .  A
N131        C135   1.342       .  A
N132        C133   1.343       .  A
C133        C134   1.378       .  A
C133        H136   1.082       .  S
C134        C135   1.379       .  A
C134        C929   1.428       .  S
C135        H137   1.082       .  S
N138        N139   1.324       .  A
N138        C142   1.342       .  A
N139        C140   1.364       .  A
C140        C141   1.409       .  A
C140        H143   1.082       .  S
C141        C142   1.376       .  A
C141        C925   1.506       .  S
C142        H144   1.082       .  S
N145        N146   1.326       .  A
N145        C149   1.363       .  A
N145       Cu153   2.188       .  S
N146        C147   1.345       .  A
N146       Cu152   2.057       .  S
C147        C148   1.379       .  A
C147        H150   1.081       .  S
C148        C149   1.408       .  A
C148        C911   1.509       .  S
C149        H151   1.082       .  S
Cu152       N155   2.057       .  S
Cu153       N163   2.188   1_554  S
Cu154       N156   2.048       .  S
Cu154       N162   2.047       .  S
N155        N156   1.318   1_554  A
N155        C159   1.344       .  A
N156        C157   1.341       .  A
C157        C158   1.378       .  A
C157        H160   1.082       .  S
C158        C159   1.381   1_556  A
C158        C919   1.429       .  S
C159        H161   1.082       .  S
N162        N163   1.324       .  A
N162        C166   1.344       .  A
N163        C164   1.364       .  A
C164        C165   1.409       .  A
C164        H167   1.082       .  S
C165        C166   1.377       .  A
C165        C915   1.507       .  S
C166        H168   1.082       .  S
O169       Cu177   1.996       .  S
O169        C179   1.275   1_556  A
O170       Cu177   1.998   1_455  S
O170        C180   1.275       .  A
O171       Cu177   2.004       .  S
O171        C181   1.276   1_556  A
O172       Cu177   2.005   1_455  S
O172        C182   1.276       .  A
O173       Cu178   1.996       .  S
O173        C182   1.275   1_554  A
O174       Cu178   1.996   1_655  S
O174        C181   1.274       .  A
O175       Cu178   2.002       .  S
O175        C180   1.276   1_554  A
O176       Cu178   2.001   1_655  S
O176        C179   1.276       .  A
Cu177      Cu178   2.383   1_656  S
C179        C907   1.426       .  S
C180        C946   1.427       .  S
C181        C909   1.427       .  S
C182        C920   1.427       .  S
N183        N184   1.325       .  A
N183        C187   1.364       .  A
N183       Cu191   2.188   1_565  S
N184        C185   1.346       .  A
N184       Cu190   2.061       .  S
C185        C186   1.382       .  A
C185        H188   1.081       .  S
C186        C187   1.408       .  A
C186        C901   1.515       .  S
C187        H189   1.082       .  S
Cu190       N193   2.058       .  S
Cu191       N201   2.188       .  S
Cu192       N194   2.056       .  S
Cu192       N200   2.057       .  S
N193        N194   1.318   1_565  A
N193        C197   1.343       .  A
N194        C195   1.343       .  A
C195        C196   1.380       .  A
C195        H198   1.082       .  S
C196        C197   1.380   1_545  A
C196        C906   1.431       .  S
C197        H199   1.082       .  S
N200        N201   1.325       .  A
N200        C204   1.345       .  A
N201        C202   1.364       .  A
C202        C203   1.408       .  A
C202        H205   1.082       .  S
C203        C204   1.380       .  A
C203        C898   1.512       .  S
C204        H206   1.081       .  S
O207       Cu215   2.003   1_556  S
O207        C217   1.276   1_565  A
O208       Cu215   2.002       .  S
O208        C218   1.275   1_565  A
O209       Cu215   2.005   1_556  S
O209        C219   1.276   1_565  A
O210       Cu215   2.005       .  S
O210        C220   1.276   1_565  A
O211       Cu216   2.001       .  S
O211        C220   1.275       .  A
O212       Cu216   1.999   1_556  S
O212        C219   1.275       .  A
O213       Cu216   2.002       .  S
O213        C218   1.276       .  A
O214       Cu216   2.002   1_556  S
O214        C217   1.276       .  A
Cu215      Cu216   2.382   1_565  S
C217        C893   1.429       .  S
C218        C936   1.428       .  S
C219        C896   1.429       .  S
C220        C905   1.429       .  S
N221        N222   1.327       .  A
N221        C225   1.362       .  A
N221       Cu229   2.183       .  S
N222        C223   1.346       .  A
N222       Cu228   2.064       .  S
C223        C224   1.378       .  A
C223        H226   1.082       .  S
C224        C225   1.405       .  A
C224        C889   1.504       .  S
C225        H227   1.082       .  S
Cu228       N231   2.062       .  S
Cu229       N239   2.182   1_554  S
Cu230       N232   2.046       .  S
Cu230       N238   2.046       .  S
N231        N232   1.318   1_554  A
N231        C235   1.345       .  A
N232        C233   1.340       .  A
C233        C234   1.376   1_556  A
C233        H236   1.082       .  S
C234        C235   1.382       .  A
C234        C910   1.429       .  S
C235        H237   1.082       .  S
N238        N239   1.324       .  A
N238        C242   1.344       .  A
N239        C240   1.363       .  A
C240        C241   1.408       .  A
C240        H243   1.082       .  S
C241        C242   1.378       .  A
C241        C885   1.506       .  S
C242        H244   1.082       .  S
C245        H246   1.111       .  S
C245        C251   1.549       .  S
C245        C250   1.550       .  S
C245        C249   1.547       .  S
C247        H248   1.110       .  S
C247        C253   1.555       .  S
C247        C252   1.558       .  S
C247        C254   1.562       .  S
C249        C252   1.384       .  D
C249        C966   1.508       .  S
C250        C253   1.384       .  D
C250        C926   1.505       .  S
C251        C254   1.385       .  D
C251        C877   1.511       .  S
C252        C902   1.513       .  S
C253        C881   1.511       .  S
C254        C873   1.507       .  S
N255        N256   1.324       .  A
N255        C259   1.365       .  A
N255       Cu263   2.192       .  S
N256        C257   1.346       .  A
N256       Cu262   2.055       .  S
C257        C258   1.379       .  A
C257        H260   1.082       .  S
C258        C259   1.409       .  A
C258        C869   1.511       .  S
C259        H261   1.082       .  S
Cu262       N265   2.055       .  S
Cu263       N273   2.193       .  S
Cu264       N266   2.064       .  S
Cu264       N272   2.065       .  S
N265        N266   1.320       .  A
N265        C269   1.342       .  A
N266        C267   1.345       .  A
C267        C268   1.381       .  A
C267        H270   1.082       .  S
C268        C269   1.377       .  A
C268        C868   1.431       .  S
C269        H271   1.082       .  S
N272        N273   1.326       .  A
N272        C276   1.348       .  A
N273        C274   1.364       .  A
C274        C275   1.409       .  A
C274        H277   1.082       .  S
C275        C276   1.382       .  A
C275        C878   1.515       .  S
C276        H278   1.081       .  S
C279        H280   1.111       .  S
C279        C285   1.552       .  S
C279        C284   1.555       .  S
C279        C283   1.552       .  S
C281        H282   1.111       .  S
C281        C287   1.555       .  S
C281        C286   1.558       .  S
C281        C288   1.555       .  S
C283        C286   1.387       .  D
C283        C890   1.507       .  S
C284        C287   1.383       .  D
C284        C897   1.512       .  S
C285        C288   1.381       .  D
C285        C863   1.508       .  S
C286        C870   1.514       .  S
C287        C859   1.509       .  S
C288        C975   1.511       .  S
N289        N290   1.326       .  A
N289        C293   1.362       .  A
N289       Cu297   2.184       .  S
N290        C291   1.347       .  A
N290       Cu296   2.066       .  S
C291        C292   1.381       .  A
C291        H294   1.081       .  S
C292        C293   1.406       .  A
C292        C860   1.510       .  S
C293        H295   1.082       .  S
Cu296       N299   2.065       .  S
Cu297       N307   2.184       .  S
Cu298       N300   2.055       .  S
Cu298       N306   2.055       .  S
N299        N300   1.319       .  A
N299        C303   1.345       .  A
N300        C301   1.342       .  A
C301        C302   1.378       .  A
C301        H304   1.082       .  S
C302        C303   1.381       .  A
C302        C858   1.433       .  S
C303        H305   1.082       .  S
N306        N307   1.325       .  A
N306        C310   1.345       .  A
N307        C308   1.363       .  A
C308        C309   1.408       .  A
C308        H311   1.082       .  S
C309        C310   1.380       .  A
C309        C853   1.509       .  S
C310        H312   1.081       .  S
N313        N314   1.324       .  A
N313        C317   1.365       .  A
N313       Cu321   2.182       .  S
N314        C315   1.342       .  A
N314       Cu320   2.047       .  S
C315        C316   1.379       .  A
C315        H318   1.081       .  S
C316        C317   1.409       .  A
C316        C843   1.511       .  S
C317        H319   1.082       .  S
Cu320       N323   2.047       .  S
Cu321       N331   2.183   1_455  S
Cu322       N324   2.064       .  S
Cu322       N330   2.065       .  S
N323        N324   1.318   1_455  A
N323        C327   1.342       .  A
N324        C325   1.344       .  A
C325        C326   1.382   1_655  A
C325        H328   1.082       .  S
C326        C327   1.378       .  A
C326        C851   1.432       .  S
C327        H329   1.082       .  S
N330        N331   1.327       .  A
N330        C334   1.345       .  A
N331        C332   1.363       .  A
C332        C333   1.406       .  A
C332        H335   1.082       .  S
C333        C334   1.382       .  A
C333        C847   1.511       .  S
C334        H336   1.081       .  S
O337       Cu345   2.002       .  S
O337        C347   1.276   1_655  A
O338       Cu345   2.000   1_565  S
O338        C348   1.275   1_655  A
O339       Cu345   1.997       .  S
O339        C349   1.275   1_655  A
O340       Cu345   1.999   1_565  S
O340        C350   1.275       .  A
O341       Cu346   2.010   1_565  S
O341        C350   1.277   1_455  A
O342       Cu346   2.009       .  S
O342        C349   1.277       .  A
O343       Cu346   1.999   1_565  S
O343        C348   1.275       .  A
O344       Cu346   2.000       .  S
O344        C347   1.275       .  A
Cu345      Cu346   2.382   1_655  S
C347        C840   1.428       .  S
C348        C837   1.427   1_455  S
C349        C852   1.430       .  S
C350        C842   1.430       .  S
N351        N352   1.324       .  A
N351        C355   1.363       .  A
N351       Cu359   2.180       .  S
N352        C353   1.343       .  A
N352       Cu358   2.048       .  S
C353        C354   1.378       .  A
C353        H356   1.082       .  S
C354        C355   1.408       .  A
C354        C831   1.506       .  S
C355        H357   1.082       .  S
Cu358       N361   2.048       .  S
Cu359       N369   2.180       .  S
Cu360       N362   2.057       .  S
Cu360       N368   2.058       .  S
N361        N362   1.318       .  A
N361        C365   1.342       .  A
N362        C363   1.343       .  A
C363        C364   1.380       .  A
C363        H366   1.082       .  S
C364        C365   1.378       .  A
C364        C835   1.428       .  S
C365        H367   1.082       .  S
N368        N369   1.326       .  A
N368        C372   1.345       .  A
N369        C370   1.362       .  A
C370        C371   1.405       .  A
C370        H373   1.082       .  S
C371        C372   1.378       .  A
C371        C827   1.503       .  S
C372        H374   1.082       .  S
N375        N376   1.326       .  A
N375        C379   1.365       .  A
N375       Cu383   2.193       .  S
N376        C377   1.347       .  A
N376       Cu382   2.065       .  S
C377        C378   1.383       .  A
C377        H380   1.081       .  S
C378        C379   1.409       .  A
C378        C823   1.517       .  S
C379        H381   1.082       .  S
Cu382       N385   2.063       .  S
Cu383       N393   2.192   1_545  S
Cu384       N386   2.054       .  S
Cu384       N392   2.055       .  S
N385        N386   1.319   1_545  A
N385        C389   1.343       .  A
N386        C387   1.343       .  A
C387        C388   1.379   1_565  A
C387        H390   1.082       .  S
C388        C389   1.380       .  A
C388        C895   1.431       .  S
C389        H391   1.082       .  S
N392        N393   1.325       .  A
N392        C396   1.345       .  A
N393        C394   1.364       .  A
C394        C395   1.409       .  A
C394        H397   1.082       .  S
C395        C396   1.380       .  A
C395        C819   1.512       .  S
C396        H398   1.081       .  S
C399        H400   1.110       .  S
C399        C405   1.561       .  S
C399        C404   1.556       .  S
C399        C403   1.557       .  S
C401        H402   1.111       .  S
C401        C407   1.549       .  S
C401        C406   1.549       .  S
C401        C408   1.548       .  S
C403        C406   1.384       .  D
C403        C824   1.516       .  S
C404        C407   1.384       .  D
C404        C844   1.508       .  S
C405        C408   1.384       .  D
C405        C941   1.507       .  S
C406        C815   1.504       .  S
C407        C832   1.507       .  S
C408        C952   1.510       .  S
N409        N410   1.324       .  A
N409        C413   1.365       .  A
N409       Cu417   2.186       .  S
N410        C411   1.340       .  A
N410       Cu416   2.044       .  S
C411        C412   1.377       .  A
C411        H414   1.081       .  S
C412        C413   1.410       .  A
C412        C811   1.510       .  S
C413        H415   1.082       .  S
Cu416       N419   2.045       .  S
Cu417       N427   2.184       .  S
Cu418       N420   2.040       .  S
Cu418       N426   2.041       .  S
N419        N420   1.316       .  A
N419        C423   1.341       .  A
N420        C421   1.341       .  A
C421        C422   1.378       .  A
C421        H424   1.082       .  S
C422        C423   1.379       .  A
C422        C809   1.425       .  S
C423        H425   1.082       .  S
N426        N427   1.324       .  A
N426        C430   1.340       .  A
N427        C428   1.364       .  A
C428        C429   1.409       .  A
C428        H431   1.082       .  S
C429        C430   1.377       .  A
C429        C816   1.507       .  S
C430        H432   1.081       .  S
C433        H434   1.110       .  S
C433        C439   1.559       .  S
C433        C438   1.560       .  S
C433        C437   1.557       .  S
C435        H436   1.111       .  S
C435        C441   1.549       .  S
C435        C440   1.553       .  S
C435        C442   1.549       .  S
C437        C440   1.381       .  D
C437        C972   1.513       .  S
C438        C441   1.384       .  D
C438        C805   1.514       .  S
C439        C442   1.386       .  D
C439        C812   1.507       .  S
C440        C848   1.509       .  S
C441        C886   1.506       .  S
C442        C801   1.513       .  S
N443        N444   1.326       .  A
N443        C447   1.365       .  A
N443       Cu451   2.193       .  S
N444        C445   1.345       .  A
N444       Cu450   2.058       .  S
C445        C446   1.381       .  A
C445        H448   1.081       .  S
C446        C447   1.410       .  A
C446        C806   1.515       .  S
C447        H449   1.082       .  S
Cu450       N453   2.057       .  S
Cu451       N461   2.192       .  S
Cu452       N454   2.053       .  S
Cu452       N460   2.055       .  S
N453        N454   1.318       .  A
N453        C457   1.344       .  A
N454        C455   1.342       .  A
C455        C456   1.378       .  A
C455        H458   1.082       .  S
C456        C457   1.380       .  A
C456        C799   1.431       .  S
C457        H459   1.082       .  S
N460        N461   1.325       .  A
N460        C464   1.344       .  A
N461        C462   1.365       .  A
C462        C463   1.410       .  A
C462        H465   1.082       .  S
C463        C464   1.381       .  A
C463        C795   1.514       .  S
C464        H466   1.081       .  S
C467        H468   1.111       .  S
C467        C473   1.553       .  S
C467        C472   1.555       .  S
C467        C471   1.551       .  S
C469        H470   1.111       .  S
C469        C475   1.555       .  S
C469        C474   1.558       .  S
C469        C476   1.555       .  S
C471        C474   1.382       .  D
C471        C787   1.507       .  S
C472        C475   1.383       .  D
C472        C791   1.507       .  S
C473        C476   1.383       .  D
C473        C783   1.509       .  S
C474        C779   1.505       .  S
C475        C922   1.509       .  S
C476        C796   1.512       .  S
N477        N478   1.324       .  A
N477        C481   1.363       .  A
N477       Cu485   2.182       .  S
N478        C479   1.344       .  A
N478       Cu484   2.049       .  S
C479        C480   1.378       .  A
C479        H482   1.082       .  S
C480        C481   1.408       .  A
C480        C780   1.507       .  S
C481        H483   1.082       .  S
Cu484       N487   2.051       .  S
Cu485       N495   2.183       .  S
Cu486       N488   2.057       .  S
Cu486       N494   2.056       .  S
N487        N488   1.319       .  A
N487        C491   1.341       .  A
N488        C489   1.345       .  A
C489        C490   1.380       .  A
C489        H492   1.082       .  S
C490        C491   1.377       .  A
C490        C778   1.430       .  S
C491        H493   1.082       .  S
N494        N495   1.325       .  A
N494        C498   1.345       .  A
N495        C496   1.363       .  A
C496        C497   1.407       .  A
C496        H499   1.082       .  S
C497        C498   1.379       .  A
C497        C774   1.508       .  S
C498        H500   1.081       .  S
C501        H502   1.111       .  S
C501        C507   1.556       .  S
C501        C506   1.554       .  S
C501        C505   1.553       .  S
C503        H504   1.111       .  S
C503        C509   1.554       .  S
C503        C508   1.553       .  S
C503        C510   1.553       .  S
C505        C508   1.380       .  D
C505        C765   1.506       .  S
C506        C509   1.381       .  D
C506        C820   1.512       .  S
C507        C510   1.387       .  D
C507        C916   1.508       .  S
C508        C769   1.509       .  S
C509        C773   1.507       .  S
C510        C956   1.510       .  S
N511        N512   1.324       .  A
N511        C515   1.365       .  A
N511       Cu519   2.186   1_455  S
N512        C513   1.342       .  A
N512       Cu518   2.048       .  S
C513        C514   1.380       .  A
C513        H516   1.081       .  S
C514        C515   1.410       .  A
C514        C761   1.512       .  S
C515        H517   1.082       .  S
Cu518       N521   2.047       .  S
Cu519       N529   2.186       .  S
Cu520       N522   2.059       .  S
Cu520       N528   2.060       .  S
N521        N522   1.317   1_455  A
N521        C525   1.342       .  A
N522        C523   1.344       .  A
C523        C524   1.382       .  A
C523        H526   1.082       .  S
C524        C525   1.379   1_655  A
C524        C841   1.432       .  S
C525        H527   1.082       .  S
N528        N529   1.326       .  A
N528        C532   1.344       .  A
N529        C530   1.364       .  A
C530        C531   1.408       .  A
C530        H533   1.082       .  S
C531        C532   1.381       .  A
C531        C882   1.512       .  S
C532        H534   1.081       .  S
C535        H536   1.110       .  S
C535        C541   1.557       .  S
C535        C540   1.556       .  S
C535        C539   1.554       .  S
C537        H538   1.111       .  S
C537        C543   1.550       .  S
C537        C542   1.549       .  S
C537        C544   1.549       .  S
C539        C542   1.384       .  D
C539        C754   1.509       .  S
C540        C543   1.385       .  D
C540        C962   1.506       .  S
C541        C544   1.384       .  D
C541        C758   1.511       .  S
C542        C762   1.510       .  S
C543        C932   1.508       .  S
C544        C912   1.505       .  S
N545        N546   1.325       .  A
N545        C549   1.367       .  A
N545       Cu553   2.201       .  S
N546        C547   1.344       .  A
N546       Cu552   2.053       .  S
C547        C548   1.380       .  A
C547        H550   1.080       .  S
C548        C549   1.413       .  A
C548        C747   1.517       .  S
C549        H551   1.082       .  S
Cu552       N555   2.053       .  S
Cu553       N563   2.200       .  S
Cu554       N556   2.047       .  S
Cu554       N562   2.046       .  S
N555        N556   1.317       .  A
N555        C559   1.342       .  A
N556        C557   1.342       .  A
C557        C558   1.379       .  A
C557        H560   1.082       .  S
C558        C559   1.380       .  A
C558        C752   1.429       .  S
C559        H561   1.082       .  S
N562        N563   1.325       .  A
N562        C566   1.342       .  A
N563        C564   1.367       .  A
C564        C565   1.412       .  A
C564        H567   1.082       .  S
C565        C566   1.377       .  A
C565        C757   1.513       .  S
C566        H568   1.081       .  S
N569        N570   1.326       .  A
N569        C573   1.362       .  A
N569       Cu577   2.183       .  S
N570        C571   1.345       .  A
N570       Cu576   2.062       .  S
C571        C572   1.380       .  A
C571        H574   1.081       .  S
C572        C573   1.406       .  A
C572        C770   1.509       .  S
C573        H575   1.082       .  S
Cu576       N579   2.060       .  S
Cu577       N587   2.182       .  S
Cu578       N580   2.048       .  S
Cu578       N586   2.050       .  S
N579        N580   1.318       .  A
N579        C583   1.344       .  A
N580        C581   1.341       .  A
C581        C582   1.378       .  A
C581        H584   1.082       .  S
C582        C583   1.381       .  A
C582        C746   1.429       .  S
C583        H585   1.082       .  S
N586        N587   1.324       .  A
N586        C590   1.343       .  A
N587        C588   1.364       .  A
C588        C589   1.408       .  A
C588        H591   1.082       .  S
C589        C590   1.381       .  A
C589        C753   1.511       .  S
C590        H592   1.081       .  S
N593        N594   1.325       .  A
N593        C597   1.363       .  A
N593       Cu601   2.183   1_455  S
N594        C595   1.345       .  A
N594       Cu600   2.054       .  S
C595        C596   1.379       .  A
C595        H598   1.081       .  S
C596        C597   1.407       .  A
C596        C766   1.507       .  S
C597        H599   1.082       .  S
Cu600       N603   2.053       .  S
Cu601       N611   2.183       .  S
Cu602       N604   2.057       .  S
Cu602       N610   2.058       .  S
N603        N604   1.319   1_455  A
N603        C607   1.343       .  A
N604        C605   1.342       .  A
C605        C606   1.379       .  A
C605        H608   1.082       .  S
C606        C607   1.379   1_655  A
C606        C838   1.429       .  S
C607        H609   1.082       .  S
N610        N611   1.325       .  A
N610        C614   1.346       .  A
N611        C612   1.363       .  A
C612        C613   1.406       .  A
C612        H615   1.082       .  S
C613        C614   1.379       .  A
C613        C792   1.507       .  S
C614        H616   1.082       .  S
N617        N618   1.326       .  A
N617        C621   1.363       .  A
N617       Cu625   2.187       .  S
N618        C619   1.348       .  A
N618       Cu624   2.065       .  S
C619        C620   1.381       .  A
C619        H622   1.082       .  S
C620        C621   1.407       .  A
C620        C802   1.511       .  S
C621        H623   1.082       .  S
Cu624       N627   2.064       .  S
Cu625       N635   2.187   1_545  S
Cu626       N628   2.057       .  S
Cu626       N634   2.058       .  S
N627        N628   1.319   1_545  A
N627        C631   1.344       .  A
N628        C629   1.343       .  A
C629        C630   1.379   1_565  A
C629        H632   1.082       .  S
C630        C631   1.380       .  A
C630        C894   1.431       .  S
C631        H633   1.082       .  S
N634        N635   1.326       .  A
N634        C638   1.347       .  A
N635        C636   1.363       .  A
C636        C637   1.407       .  A
C636        H639   1.082       .  S
C637        C638   1.379       .  A
C637        C788   1.508       .  S
C638        H640   1.082       .  S
N641        N642   1.326       .  A
N641        C645   1.363       .  A
N641       Cu649   2.186       .  S
N642        C643   1.346       .  A
N642       Cu648   2.059       .  S
C643        C644   1.379       .  A
C643        H646   1.082       .  S
C644        C645   1.407       .  A
C644        C741   1.508       .  S
C645        H647   1.082       .  S
Cu648       N651   2.059       .  S
Cu649       N659   2.187   1_455  S
Cu650       N652   2.056       .  S
Cu650       N658   2.057       .  S
N651        N652   1.319   1_455  A
N651        C655   1.343       .  A
N652        C653   1.343       .  A
C653        C654   1.379   1_655  A
C653        H656   1.082       .  S
C654        C655   1.380       .  A
C654        C839   1.430       .  S
C655        H657   1.082       .  S
N658        N659   1.325       .  A
N658        C662   1.346       .  A
N659        C660   1.363       .  A
C660        C661   1.408       .  A
C660        H663   1.082       .  S
C661        C662   1.380       .  A
C661        C864   1.510       .  S
C662        H664   1.081       .  S
C665        H666   1.111       .  S
C665        C671   1.550       .  S
C665        C670   1.558       .  S
C665        C669   1.553       .  S
C667        H668   1.111       .  S
C667        C673   1.550       .  S
C667        C672   1.555       .  S
C667        C674   1.555       .  S
C669        C672   1.385       .  D
C669        C748   1.516       .  S
C670        C673   1.382       .  D
C670        C854   1.506       .  S
C671        C674   1.382       .  D
C671        C828   1.503       .  S
C672        C947   1.510       .  S
C673        C938   1.506       .  S
C674        C742   1.507       .  S
N675        N676   1.325       .  A
N675        C679   1.363       .  A
N675       Cu683   2.185       .  S
N676        C677   1.344       .  A
N676       Cu682   2.050       .  S
C677        C678   1.378       .  A
C677        H680   1.081       .  S
C678        C679   1.408       .  A
C678        C874   1.508       .  S
C679        H681   1.082       .  S
Cu682       N685   2.050       .  S
Cu683       N693   2.185   1_554  S
Cu684       N686   2.055       .  S
Cu684       N692   2.056       .  S
N685        N686   1.318   1_554  A
N685        C689   1.342       .  A
N686        C687   1.342       .  A
C687        C688   1.379   1_556  A
C687        H690   1.082       .  S
C688        C689   1.378       .  A
C688        C908   1.428       .  S
C689        H691   1.082       .  S
N692        N693   1.325       .  A
N692        C696   1.344       .  A
N693        C694   1.364       .  A
C694        C695   1.408       .  A
C694        H697   1.082       .  S
C695        C696   1.381       .  A
C695        C784   1.511       .  S
C696        H698   1.081       .  S
O699       Cu707   2.003       .  S
O699        C709   1.276       .  A
O700       Cu707   2.002   1_556  S
O700        C710   1.275       .  A
O701       Cu707   2.003   1_556  S
O701        C711   1.275       .  A
O702       Cu707   2.001       .  S
O702        C712   1.275       .  A
O703       Cu708   2.002   1_554  S
O703        C712   1.275       .  A
O704       Cu708   2.001       .  S
O704        C711   1.276       .  A
O705       Cu708   2.002       .  S
O705        C710   1.276       .  A
O706       Cu708   2.002   1_554  S
O706        C709   1.275       .  A
Cu707      Cu708   2.382   1_554  S
C709        C867   1.429       .  S
C710        C959   1.428       .  S
C711        C800   1.429       .  S
C712        C751   1.428       .  S
O713       Cu721   2.000   1_565  S
O713        C723   1.275       .  A
O714       Cu721   1.999       .  S
O714        C724   1.275       .  A
O715       Cu721   2.005       .  S
O715        C725   1.276       .  A
O716       Cu721   2.004   1_565  S
O716        C726   1.276       .  A
O717       Cu722   2.001   1_565  S
O717        C726   1.276       .  A
O718       Cu722   2.004       .  S
O718        C725   1.276       .  A
O719       Cu722   1.993       .  S
O719        C724   1.274       .  A
O720       Cu722   1.994   1_565  S
O720        C723   1.275       .  A
Cu721      Cu722   2.383       .  S
C723        C970   1.425       .  S
C724        C810   1.423       .  S
C725        C857   1.431       .  S
C726        C777   1.429       .  S
O727       Cu735   2.008       .  S
O727        C737   1.276       .  A
O728       Cu735   2.006   1_455  S
O728        C738   1.276       .  A
O729       Cu735   1.996   1_455  S
O729        C739   1.275       .  A
O730       Cu735   1.999       .  S
O730        C740   1.275       .  A
O731       Cu736   1.998       .  S
O731        C740   1.275       .  A
O732       Cu736   2.000   1_455  S
O732        C739   1.275       .  A
O733       Cu736   1.995   1_455  S
O733        C738   1.274       .  A
O734       Cu736   1.993       .  S
O734        C737   1.274       .  A
Cu735      Cu736   2.383       .  S
C737        C979   1.427       .  S
C738        C745   1.427       .  S
C739        C836   1.425       .  S
C740        C930   1.425       .  S
C741        C742   1.362       .  D
C741        H743   1.086       .  S
C742        H744   1.085       .  S
C745        C746   1.201       .  T
C747        C748   1.368       .  D
C747        H749   1.086       .  S
C748        H750   1.083       .  S
C751        C752   1.201       .  T
C753        C754   1.363       .  D
C753        H755   1.086       .  S
C754        H756   1.083       .  S
C757        C758   1.366       .  D
C757        H759   1.086       .  S
C758        H760   1.084       .  S
C761        C762   1.364       .  D
C761        H763   1.086       .  S
C762        H764   1.083       .  S
C765        C766   1.364       .  D
C765        H767   1.084       .  S
C766        H768   1.086       .  S
C769        C770   1.363       .  D
C769        H771   1.084       .  S
C770        H772   1.086       .  S
C773        C774   1.364       .  D
C773        H775   1.084       .  S
C774        H776   1.086       .  S
C777        C778   1.202       .  T
C779        C780   1.363       .  D
C779        H781   1.085       .  S
C780        H782   1.086       .  S
C783        C784   1.363       .  D
C783        H785   1.084       .  S
C784        H786   1.086       .  S
C787        C788   1.363       .  D
C787        H789   1.085       .  S
C788        H790   1.086       .  S
C791        C792   1.362       .  D
C791        H793   1.085       .  S
C792        H794   1.086       .  S
C795        C796   1.364       .  D
C795        H797   1.086       .  S
C796        H798   1.083       .  S
C799        C800   1.202       .  T
C801        C802   1.363       .  D
C801        H803   1.086       .  S
C802        H804   1.086       .  S
C805        C806   1.365       .  D
C805        H807   1.084       .  S
C806        H808   1.086       .  S
C809        C810   1.199       .  T
C811        C812   1.364       .  D
C811        H813   1.086       .  S
C812        H814   1.083       .  S
C815        C816   1.363       .  D
C815        H817   1.083       .  S
C816        H818   1.086       .  S
C819        C820   1.365       .  D
C819        H821   1.086       .  S
C820        H822   1.084       .  S
C823        C824   1.365       .  D
C823        H825   1.086       .  S
C824        H826   1.084       .  S
C827        C828   1.360       .  D
C827        H829   1.086       .  S
C828        H830   1.086       .  S
C831        C832   1.362       .  D
C831        H833   1.086       .  S
C832        H834   1.085       .  S
C835        C836   1.200       .  T
C837        C838   1.201       .  T
C839        C840   1.202       .  T
C841        C842   1.203       .  T
C843        C844   1.364       .  D
C843        H845   1.086       .  S
C844        H846   1.083       .  S
C847        C848   1.362       .  D
C847        H849   1.086       .  S
C848        H850   1.084       .  S
C851        C852   1.203       .  T
C853        C854   1.363       .  D
C853        H855   1.086       .  S
C854        H856   1.085       .  S
C857        C858   1.203       .  T
C859        C860   1.364       .  D
C859        H861   1.084       .  S
C860        H862   1.086       .  S
C863        C864   1.365       .  D
C863        H865   1.084       .  S
C864        H866   1.086       .  S
C867        C868   1.202       .  T
C869        C870   1.364       .  D
C869        H871   1.086       .  S
C870        H872   1.086       .  S
C873        C874   1.363       .  D
C873        H875   1.085       .  S
C874        H876   1.086       .  S
C877        C878   1.366       .  D
C877        H879   1.084       .  S
C878        H880   1.086       .  S
C881        C882   1.364       .  D
C881        H883   1.083       .  S
C882        H884   1.085       .  S
C885        C886   1.363       .  D
C885        H887   1.086       .  S
C886        H888   1.085       .  S
C889        C890   1.361       .  D
C889        H891   1.086       .  S
C890        H892   1.086       .  S
C893        C894   1.202       .  T
C895        C896   1.202       .  T
C897        C898   1.365       .  D
C897        H899   1.083       .  S
C898        H900   1.086       .  S
C901        C902   1.364       .  D
C901        H903   1.086       .  S
C902        H904   1.084       .  S
C905        C906   1.202       .  T
C907        C908   1.200       .  T
C909        C910   1.201       .  T
C911        C912   1.363       .  D
C911        H913   1.086       .  S
C912        H914   1.084       .  S
C915        C916   1.363       .  D
C915        H917   1.086       .  S
C916        H918   1.086       .  S
C919        C920   1.201       .  T
C921        C922   1.363       .  D
C921        H923   1.086       .  S
C922        H924   1.085       .  S
C925        C926   1.362       .  D
C925        H927   1.086       .  S
C926        H928   1.085       .  S
C929        C930   1.200       .  T
C931        C932   1.362       .  D
C931        H933   1.086       .  S
C932        H934   1.085       .  S
C935        C936   1.201       .  T
C937        C938   1.363       .  D
C937        H939   1.086       .  S
C938        H940   1.086       .  S
C941        C942   1.364       .  D
C941        H943   1.084       .  S
C942        H944   1.086       .  S
C945        C946   1.201       .  T
C947        C948   1.365       .  D
C947        H949   1.083       .  S
C948        H950   1.086       .  S
C951        C952   1.364       .  D
C951        H953   1.086       .  S
C952        H954   1.085       .  S
C955        C956   1.364       .  D
C955        H957   1.086       .  S
C956        H958   1.086       .  S
C959        C960   1.202       .  T
C961        C962   1.363       .  D
C961        H963   1.085       .  S
C962        H964   1.083       .  S
C965        C966   1.363       .  D
C965        H967   1.086       .  S
C966        H968   1.083       .  S
C969        C970   1.200       .  T
C971        C972   1.364       .  D
C971        H973   1.086       .  S
C972        H974   1.084       .  S
C975        C976   1.365       .  D
C975        H977   1.084       .  S
C976        H978   1.086       .  S
C979        C980   1.201       .  T
