geometry optimzed in LAMMPS
_audit_creation_date              2020-12-01 
_audit_creation_method            'lammps2cif' 
_symmetry_space_group_name_H-M    'P1' 
_symmetry_Int_Tables_number       1 
_symmetry_cell_setting            triclinic 
loop_ 
_symmetry_equiv_pos_as_xyz 
  x,y,z 
_cell_length_a                    45.54959961 
_cell_length_b                    45.50635722031771 
_cell_length_c                    47.39620971737893 
_cell_angle_alpha                 89.99025496570576 
_cell_angle_beta                  90.11288853061211 
_cell_angle_gamma                 90.01421395337042 
loop_ 
_atom_site_label 
_atom_site_type_symbol 
_atom_site_fract_x 
_atom_site_fract_y 
_atom_site_fract_z 
_atom_site_charge 
O1          O  0.96781388  0.97922168  0.71580021    -0.74400
O2          O  0.04227340  0.01981987  0.71303852    -0.74500
O3          O  0.02526005  0.96274250  0.71366236    -0.74500
O4          O  0.98509621  0.03607890  0.71440817    -0.74600
O5          O  0.98635099  0.03677562  0.76139442    -0.74500
O6          O  0.02743222  0.96271475  0.76064271    -0.74500
O7          O  0.04356594  0.02015345  0.76001655    -0.74500
O8          O  0.97047318  0.97931255  0.76277196    -0.74500
Ni9        Ni  0.00504241  0.99942468  0.71256140     1.25400
Ni10       Ni  0.00701121  0.99977102  0.76286868     1.25400
C11         C  0.95700818  0.97251364  0.73997583     0.87700
C12         C  0.05515653  0.02672844  0.73625455     0.87700
C13         C  0.03316582  0.95060603  0.73681890     0.87700
C14         C  0.97902071  0.04862753  0.73781539     0.87900
O15         O  0.96467104  0.97749180  0.28089582    -0.74400
O16         O  0.04084734  0.01419431  0.28107146    -0.74500
O17         O  0.98461664  0.03319369  0.28331188    -0.74500
O18         O  0.02098483  0.95801761  0.27927637    -0.74600
O19         O  0.02010538  0.95982839  0.23230770    -0.74500
O20         O  0.98317857  0.03591532  0.23639521    -0.74500
O21         O  0.03951185  0.01646813  0.23414297    -0.74500
O22         O  0.96399814  0.97973351  0.23394089    -0.74500
Ni23       Ni  0.00286006  0.99560405  0.28277266     1.25400
Ni24       Ni  0.00171560  0.99804299  0.23250634     1.25400
C25         C  0.95160728  0.97294688  0.25727410     0.87700
C26         C  0.05264227  0.02165078  0.25755048     0.87700
C27         C  0.97761939  0.04693365  0.26074379     0.87700
C28         C  0.02651008  0.94633740  0.25531570     0.87900
N29         N  0.20843843  0.38973966  0.00020753    -0.36600
N30         N  0.19465538  0.43180231  0.04402623    -0.57200
N31         N  0.17911517  0.47395056  0.00034819    -0.36600
N32         N  0.18961246  0.43016198  0.95650819    -0.57200
C33         C  0.20907873  0.37234837  0.02334385     0.27000
C34         C  0.20721994  0.37183781  0.97747143     0.27000
C35         C  0.16940022  0.48798090  0.02372092     0.27000
C36         C  0.16621596  0.48691795  0.97781186     0.27000
C37         C  0.20878076  0.41146192  0.05977669     0.35600
C38         C  0.19350073  0.45647569  0.05979912     0.35600
C39         C  0.20325150  0.40988375  0.94029950     0.35600
C40         C  0.18660671  0.45448318  0.94041002     0.35600
C41         C  0.20783509  0.34309272  0.01520727    -0.21900
C42         C  0.20678188  0.34277691  0.98622145    -0.21900
C43         C  0.15008056  0.51009621  0.01599435    -0.21900
C44         C  0.14796604  0.50935235  0.98701024    -0.21900
C45         C  0.21636542  0.42312450  0.08578616    -0.23000
C46         C  0.20667960  0.45170023  0.08580671    -0.23000
C47         C  0.20865351  0.42119855  0.91368934    -0.23000
C48         C  0.19806569  0.44949192  0.91373586    -0.23000
C49         C  0.21367069  0.38214512  0.05131264    -0.18300
C50         C  0.20995708  0.38102506  0.94914016    -0.18300
C51         C  0.17249222  0.48062621  0.94917811    -0.18300
C52         C  0.17925291  0.48268308  0.05157648    -0.18300
H53         H  0.20844924  0.32392643  0.02872196     0.14600
H54         H  0.20649318  0.32336116  0.97303214     0.14600
H55         H  0.13895498  0.52540639  0.02979403     0.14600
H56         H  0.13489943  0.52403871  0.97414307     0.14600
H57         H  0.22766727  0.41220864  0.10294100     0.12900
H58         H  0.20901226  0.46714342  0.10303082     0.12900
H59         H  0.21913926  0.41025458  0.89612201     0.12900
H60         H  0.19889141  0.46469097  0.89619089     0.12900
H61         H  0.21304851  0.41205588  0.99975304     0.26100
H62         H  0.19632892  0.45906768  0.99960005     0.26100
C63         C  0.66743479  0.83302465  0.74691246     0.86500
C64         C  0.69309965  0.85427121  0.74129783    -0.53800
C65         C  0.70979169  0.86047819  0.76458323     0.09400
C66         C  0.69898763  0.84496150  0.79164833     0.20300
C67         C  0.68205725  0.80605644  0.76033522    -0.54500
C68         C  0.69865989  0.81212589  0.78365149     0.09500
C69         C  0.65022409  0.84755892  0.77088918    -0.54000
C70         C  0.66626235  0.85356867  0.79459365     0.10100
H71         H  0.69893266  0.86271739  0.72075313     0.14600
H72         H  0.71245006  0.84986864  0.81058836     0.00300
H73         H  0.67923534  0.78395617  0.75210609     0.14900
H74         H  0.62703960  0.85270951  0.76894822     0.14700
C75         C  0.65707480  0.84478398  0.24484875     0.86500
C76         C  0.64212277  0.86092851  0.22003671    -0.53800
C77         C  0.65930716  0.86371800  0.19659630     0.09400
C78         C  0.69007366  0.85037547  0.20007170     0.20300
C79         C  0.66732237  0.81545932  0.23208992    -0.54500
C80         C  0.68452521  0.81830675  0.20869683     0.09500
C81         C  0.68553537  0.86222415  0.24997229    -0.54000
C82         C  0.70306851  0.86485477  0.22668101     0.10100
H83         H  0.62016664  0.86989596  0.22039880     0.14600
H84         H  0.70401700  0.85275157  0.18103689     0.00300
H85         H  0.66107058  0.79424073  0.24069175     0.14900
H86         H  0.69188086  0.87041243  0.27061967     0.14700
C87         C  0.34414141  0.16320875  0.24300945     0.86500
C88         C  0.35841513  0.14406418  0.22017110    -0.53800
C89         C  0.34142067  0.13950339  0.19675701     0.09400
C90         C  0.31090641  0.15408995  0.19876109     0.20300
C91         C  0.33479593  0.19134370  0.22755920    -0.54500
C92         C  0.31761374  0.18679473  0.20433105     0.09500
C93         C  0.31486398  0.14758964  0.24964504    -0.54000
C94         C  0.29721010  0.14261284  0.22659809     0.10100
H95         H  0.38053720  0.13543766  0.22225294     0.14600
H96         H  0.29753091  0.15052529  0.17954780     0.00300
H97         H  0.34145332  0.21311129  0.23446212     0.14900
H98         H  0.30791377  0.14205912  0.27072818     0.14700
C99         C  0.34145791  0.17423112  0.74621430     0.86500
C100        C  0.31357887  0.15584546  0.74057705    -0.53800
C101        C  0.29737876  0.15004335  0.76426204     0.09400
C102        C  0.31096592  0.16269382  0.79155881     0.20300
C103        C  0.32999763  0.20168103  0.76162785    -0.54500
C104        C  0.31394313  0.19577117  0.78530265     0.09500
C105        C  0.35821486  0.15675362  0.76864198    -0.54000
C106        C  0.34277727  0.15098226  0.79264994     0.10100
H107        H  0.30593867  0.14945046  0.71985219     0.14600
H108        H  0.29803818  0.15778480  0.81078621     0.00300
H109        H  0.33415217  0.22388169  0.75422900     0.14900
H110        H  0.38079792  0.14979594  0.76563899     0.14700
C111        C  0.51319339  0.97456619  0.97646462     0.02300
C112        C  0.51821543  0.98026096  0.00543174     0.02200
C113        C  0.50042729  0.00080008  0.01950819    -0.18300
C114        C  0.47730436  0.01541828  0.00573179     0.02300
C115        C  0.47199009  0.00948458  0.97686481     0.02200
C116        C  0.48997953  0.98912654  0.96270937    -0.18300
H117        H  0.48644740  0.98526924  0.94038225     0.04300
H118        H  0.50391059  0.00465744  0.04184767     0.04300
N119        N  0.78353913  0.61520131  0.99823131    -0.36600
N120        N  0.78979407  0.57317097  0.04344492    -0.57200
N121        N  0.80119924  0.52720078  0.00235376    -0.36600
N122        N  0.79214085  0.56935734  0.95702183    -0.57200
C123        C  0.77119919  0.62997115  0.01992613     0.27000
C124        C  0.77438337  0.62836267  0.97422631     0.27000
C125        C  0.79756451  0.51115565  0.02612938     0.27000
C126        C  0.79716100  0.50888485  0.98016862     0.27000
C127        C  0.78855487  0.59811597  0.05883182     0.35600
C128        C  0.79935681  0.55189264  0.06102687     0.35600
C129        C  0.79450859  0.59297188  0.93990770     0.35600
C130        C  0.80157683  0.54604601  0.94199947     0.35600
C131        C  0.75376205  0.65252855  0.00954848    -0.21900
C132        C  0.75587597  0.65157983  0.98065854    -0.21900
C133        C  0.79169409  0.48219123  0.01902641    -0.21900
C134        C  0.79122950  0.48079291  0.99000655    -0.21900
C135        C  0.79747985  0.59273762  0.08631253    -0.23000
C136        C  0.80426111  0.56336436  0.08773363    -0.23000
C137        C  0.80572453  0.58472593  0.91394843    -0.23000
C138        C  0.81002674  0.55486828  0.91520796    -0.23000
C139        C  0.77704906  0.62492874  0.04879821    -0.18300
C140        C  0.78406722  0.62119870  0.94683291    -0.18300
C141        C  0.80009723  0.51665068  0.95137212    -0.18300
C142        C  0.80058999  0.52179706  0.05401127    -0.18300
H143        H  0.74112409  0.66829616  0.02154916     0.14600
H144        H  0.74518924  0.66642277  0.96604305     0.14600
H145        H  0.78800334  0.46397159  0.03326735     0.14600
H146        H  0.78715838  0.46124554  0.97759999     0.14600
H147        H  0.79841325  0.60818313  0.10365046     0.12900
H148        H  0.81129186  0.55165342  0.10644141     0.12900
H149        H  0.80971640  0.59860394  0.89581427     0.12900
H150        H  0.81811902  0.54115443  0.89826510     0.12900
H151        H  0.80016849  0.59958842  0.99973193     0.26100
H152        H  0.80885103  0.54870502  0.00141349     0.26100
N153        N  0.39827523  0.75994731  0.49986657    -0.36600
N154        N  0.43960930  0.77291406  0.45461046    -0.57200
N155        N  0.48260953  0.79045429  0.49703476    -0.36600
N156        N  0.44229130  0.77333786  0.54206461    -0.57200
C157        C  0.38383293  0.74852476  0.47746651     0.27000
C158        C  0.38482174  0.74983851  0.52337326     0.27000
C159        C  0.49923749  0.79167281  0.47340529     0.27000
C160        C  0.50115693  0.79025464  0.51940555     0.27000
C161        C  0.41502359  0.76898594  0.43899251     0.35600
C162        C  0.45950212  0.78592284  0.43752527     0.35600
C163        C  0.41886610  0.77043347  0.55931045     0.35600
C164        C  0.46414815  0.78474135  0.55792697     0.35600
C165        C  0.36104728  0.73081264  0.48690263    -0.21900
C166        C  0.36156609  0.73179938  0.51586129    -0.21900
C167        C  0.52866929  0.79267681  0.48084338    -0.21900
C168        C  0.52989399  0.79161621  0.50982022    -0.21900
C169        C  0.41948667  0.77906639  0.41174528    -0.23000
C170        C  0.44767577  0.78976774  0.41080467    -0.23000
C171        C  0.42593457  0.77966107  0.58632423    -0.23000
C172        C  0.45466322  0.78868752  0.58547236    -0.23000
C173        C  0.38884424  0.75578860  0.44882844    -0.18300
C174        C  0.39172449  0.75799665  0.55135975    -0.18300
C175        C  0.49293697  0.79046134  0.54825691    -0.18300
C176        C  0.48860461  0.79324403  0.44534448    -0.18300
H177        H  0.34525247  0.71888486  0.47422174     0.14600
H178        H  0.34633454  0.72074978  0.52979346     0.14600
H179        H  0.54736335  0.79401901  0.46683839     0.14600
H180        H  0.54975063  0.79203613  0.52239116     0.14600
H181        H  0.40403126  0.77886476  0.39437645     0.12900
H182        H  0.45822229  0.79935440  0.39254549     0.12900
H183        H  0.41195263  0.77964286  0.60476384     0.12900
H184        H  0.46711362  0.79721527  0.60313649     0.12900
H185        H  0.41366896  0.77673478  0.49912926     0.26100
H186        H  0.45999431  0.79288767  0.49787791     0.26100
C187        C  0.16551383  0.65466639  0.74892778     0.86500
C188        C  0.14683324  0.64088784  0.72537923    -0.53800
C189        C  0.14350091  0.65827037  0.70208533     0.09400
C190        C  0.15903419  0.68816620  0.70449757     0.20300
C191        C  0.19455467  0.66292543  0.73420059    -0.54500
C192        C  0.19126555  0.68011484  0.71073018     0.09500
C193        C  0.15089430  0.68424680  0.75511321    -0.54000
C194        C  0.14702380  0.70189243  0.73204224     0.10100
H195        H  0.13779689  0.61884430  0.72675531     0.14600
H196        H  0.15585014  0.70194517  0.68545889     0.00300
H197        H  0.21602369  0.65578446  0.74099200     0.14900
H198        H  0.14427854  0.69051968  0.77625708     0.14700
C199        C  0.15540161  0.65033344  0.25804455     0.86500
C200        C  0.14179711  0.68078007  0.25271404    -0.53800
C201        C  0.13968881  0.69806836  0.27629868     0.09400
C202        C  0.15162462  0.68313493  0.30322985     0.20300
C203        C  0.18515643  0.65704612  0.27218820    -0.54500
C204        C  0.18332817  0.67439850  0.29561636     0.09500
C205        C  0.13680012  0.63696331  0.28175237    -0.54000
C206        C  0.13443440  0.65404679  0.30530116     0.10100
H207        H  0.13397073  0.68767090  0.23209885     0.14600
H208        H  0.15013999  0.69707047  0.32235596     0.00300
H209        H  0.20612920  0.64899296  0.26496923     0.14900
H210        H  0.12619277  0.61566715  0.27988778     0.14700
C211        C  0.84549252  0.34227933  0.24770161     0.86500
C212        C  0.85870878  0.31174109  0.24190570    -0.53800
C213        C  0.86221788  0.29465013  0.26536754     0.09400
C214        C  0.85229297  0.30987287  0.29281660     0.20300
C215        C  0.81669535  0.33544500  0.26338809    -0.54500
C216        C  0.82019245  0.31860810  0.28709943     0.09500
C217        C  0.86561920  0.35591382  0.27008687    -0.54000
C218        C  0.86913098  0.33920846  0.29378581     0.10100
H219        H  0.86421375  0.30362148  0.22115917     0.14600
H220        H  0.85524716  0.29639540  0.31211076     0.00300
H221        H  0.79538120  0.34298019  0.25608646     0.14900
H222        H  0.87542210  0.37753932  0.26772878     0.14700
C223        C  0.83783780  0.34045968  0.75407280     0.86500
C224        C  0.85785403  0.35537016  0.73233005    -0.53800
C225        C  0.86414217  0.33841027  0.70941575     0.09400
C226        C  0.85013360  0.30772646  0.71039417     0.20300
C227        C  0.81065290  0.33068141  0.73689202    -0.54500
C228        C  0.81707489  0.31381140  0.71379184     0.09500
C229        C  0.85342715  0.31157196  0.76151251    -0.54000
C230        C  0.86016658  0.29438115  0.73879773     0.10100
H231        H  0.86551913  0.37787138  0.73447335     0.14600
H232        H  0.85593138  0.29429141  0.69171357     0.00300
H233        H  0.78824182  0.33613567  0.74216534     0.14900
H234        H  0.85840905  0.30526226  0.78309049     0.14700
C235        C  0.00960905  0.52137624  0.49197187     0.02300
C236        C  0.00415675  0.52490391  0.52108191     0.02200
C237        C  0.98538212  0.50499707  0.53472268    -0.18300
C238        C  0.97213694  0.48167468  0.52008693     0.02300
C239        C  0.97723861  0.47838406  0.49085259     0.02200
C240        C  0.99613663  0.49825478  0.47725328    -0.18300
H241        H  0.99985513  0.49619674  0.45474535     0.04300
H242        H  0.98179752  0.50706328  0.55725471     0.04300
N243        N  0.61120104  0.23581303  0.49705485    -0.36600
N244        N  0.56952974  0.21973965  0.45294388    -0.57200
N245        N  0.52570392  0.20804359  0.49593318    -0.36600
N246        N  0.56648189  0.22798704  0.53971887    -0.57200
C247        C  0.62571998  0.24462988  0.47367631     0.27000
C248        C  0.62384326  0.24954965  0.51932217     0.27000
C249        C  0.50874669  0.20765827  0.47238640     0.27000
C250        C  0.50749756  0.21105221  0.51830373     0.27000
C251        C  0.59432624  0.22068572  0.43731607     0.35600
C252        C  0.54863740  0.20724134  0.43655317     0.35600
C253        C  0.58995900  0.23228435  0.55672233     0.35600
C254        C  0.54498486  0.21698050  0.55621424     0.35600
C255        C  0.64776590  0.26419164  0.48117724    -0.21900
C256        C  0.64656068  0.26731171  0.50996938    -0.21900
C257        C  0.47946766  0.21026516  0.47998296    -0.21900
C258        C  0.47868295  0.21233178  0.50891261    -0.21900
C259        C  0.58917666  0.20873468  0.41087027    -0.23000
C260        C  0.56020160  0.20029879  0.41035587    -0.23000
C261        C  0.58333546  0.22412000  0.58414073    -0.23000
C262        C  0.55482004  0.21438110  0.58382026    -0.23000
C263        C  0.62087055  0.23412381  0.44596316    -0.18300
C264        C  0.61671324  0.24498804  0.54800924    -0.18300
C265        C  0.51601039  0.21122644  0.54706528    -0.18300
C266        C  0.51882617  0.20386373  0.44431345    -0.18300
H267        H  0.66327239  0.27498565  0.46734427     0.14600
H268        H  0.66096828  0.28092500  0.52260681     0.14600
H269        H  0.46055329  0.21065220  0.46613657     0.14600
H270        H  0.45907891  0.21458431  0.52159695     0.14600
H271        H  0.60454191  0.20669999  0.39359577     0.12900
H272        H  0.54889799  0.19039837  0.39264154     0.12900
H273        H  0.59749363  0.22517685  0.60247738     0.12900
H274        H  0.54266812  0.20651102  0.60190732     0.12900
H275        H  0.59606719  0.21874900  0.49805223     0.26100
H276        H  0.54801871  0.20342313  0.49698052     0.26100
C277        C  0.88073414  0.34971410  0.68489964    -0.03200
C278        C  0.90622276  0.36655415  0.68889712    -0.05800
C279        C  0.92101131  0.37845186  0.66575566    -0.20900
C280        C  0.91009164  0.37444223  0.63834485     0.24800
C281        C  0.88477231  0.35729317  0.63426944    -0.18500
C282        C  0.87036361  0.34479350  0.65738388    -0.08400
C283        C  0.92516533  0.38894834  0.61448325    -0.18700
C284        C  0.91019710  0.40282641  0.59398201    -0.23500
C285        C  0.92516304  0.42179771  0.57318443     0.26900
C286        C  0.91416622  0.45009165  0.56816510    -0.20300
C287        C  0.92913186  0.46938503  0.55034258    -0.09900
C288        C  0.95475691  0.46028592  0.53652561    -0.10500
C289        C  0.96517497  0.43157464  0.54061273    -0.03400
C290        C  0.95061882  0.41249809  0.55905501    -0.18500
H291        H  0.91467186  0.37049821  0.70993503     0.10600
H292        H  0.94053028  0.39155473  0.66931247     0.10600
H293        H  0.87615127  0.35360224  0.61325760     0.10300
H294        H  0.85060311  0.33206203  0.65382921     0.11400
H295        H  0.94888509  0.39136343  0.61558434     0.11500
H296        H  0.88635936  0.40340498  0.59473519     0.13400
H297        H  0.89460247  0.45763236  0.57891793     0.09900
H298        H  0.92098031  0.49156112  0.54758282     0.12000
H299        H  0.98509490  0.42433394  0.53028577     0.08600
H300        H  0.95929983  0.39062680  0.56246128     0.11400
C301        C  0.79451342  0.30418498  0.69292479    -0.03200
C302        C  0.79830917  0.27819333  0.67739359    -0.05800
C303        C  0.77762373  0.26954818  0.65727734    -0.20900
C304        C  0.75250796  0.28655222  0.65226624     0.24800
C305        C  0.74875736  0.31284157  0.66742162    -0.18500
C306        C  0.76953868  0.32153126  0.68753091    -0.08400
C307        C  0.73138030  0.27657819  0.63040539    -0.18700
C308        C  0.70249553  0.28299481  0.63100459    -0.23500
C309        C  0.68087984  0.27244036  0.60963278     0.26900
C310        C  0.65290159  0.28547009  0.60889479    -0.20300
C311        C  0.63191007  0.27646500  0.58910891    -0.09900
C312        C  0.63846383  0.25409470  0.56976968    -0.10500
C313        C  0.66613307  0.24066277  0.57070341    -0.03400
C314        C  0.68710596  0.24958566  0.59046197    -0.18500
H315        H  0.81710895  0.26428947  0.68072553     0.10600
H316        H  0.78115880  0.24932753  0.64570399     0.10600
H317        H  0.73023485  0.32710995  0.66335473     0.10300
H318        H  0.76633824  0.34223872  0.69831597     0.11400
H319        H  0.74019441  0.26277007  0.61386401     0.11500
H320        H  0.69408395  0.29659593  0.64797575     0.13400
H321        H  0.64735346  0.30289849  0.62350899     0.09900
H322        H  0.61064408  0.28710015  0.58868442     0.12000
H323        H  0.67145645  0.22318731  0.55606368     0.08600
H324        H  0.70785002  0.23812643  0.59064415     0.11400
C325        C  0.88574867  0.34997891  0.31867993    -0.03200
C326        C  0.91245102  0.36483196  0.31499527    -0.05800
C327        C  0.92682250  0.37756226  0.33798903    -0.20900
C328        C  0.91466955  0.37619693  0.36516943     0.24800
C329        C  0.88832779  0.36045218  0.36905568    -0.18500
C330        C  0.87408407  0.34736466  0.34597675    -0.08400
C331        C  0.93043537  0.39154680  0.38848327    -0.18700
C332        C  0.91807812  0.39975298  0.41312941    -0.23500
C333        C  0.93388419  0.41766525  0.43476601     0.26900
C334        C  0.91751566  0.43432732  0.45413973    -0.20300
C335        C  0.93155267  0.45319838  0.47324629    -0.09900
C336        C  0.96230358  0.45558225  0.47352063    -0.10500
C337        C  0.97873220  0.43792872  0.45512934    -0.03400
C338        C  0.96476457  0.41901421  0.43614055    -0.18500
H339        H  0.92207048  0.36686720  0.29420496     0.10600
H340        H  0.94723776  0.38917605  0.33437248     0.10600
H341        H  0.87861477  0.35817274  0.38973474     0.10300
H342        H  0.85344222  0.33607864  0.34931867     0.11400
H343        H  0.95276336  0.39830557  0.38397700     0.11500
H344        H  0.89500452  0.39527935  0.41678268     0.13400
H345        H  0.89374837  0.43353873  0.45381928     0.09900
H346        H  0.91834073  0.46681836  0.48699004     0.12000
H347        H  0.00248320  0.43915162  0.45517048     0.08600
H348        H  0.97836387  0.40568897  0.42255709     0.11400
C349        C  0.79534809  0.30943387  0.30535057    -0.03200
C350        C  0.77152547  0.32836609  0.30998301    -0.05800
C351        C  0.74807791  0.31964567  0.32700401    -0.20900
C352        C  0.74772256  0.29177250  0.33976402     0.24800
C353        C  0.77175063  0.27281996  0.33517709    -0.18500
C354        C  0.79529289  0.28165109  0.31823088    -0.08400
C355        C  0.72171328  0.28373757  0.35727774    -0.18700
C356        C  0.71847364  0.25816534  0.37133640    -0.23500
C357        C  0.69246035  0.25137140  0.38913951     0.26900
C358        C  0.69567274  0.23125501  0.41139342    -0.20300
C359        C  0.67212696  0.22499346  0.42926596    -0.09900
C360        C  0.64478251  0.23851051  0.42505536    -0.10500
C361        C  0.64112617  0.25786083  0.40228611    -0.03400
C362        C  0.66470055  0.26416026  0.38437331    -0.18500
H363        H  0.77113561  0.35010113  0.30069410     0.10600
H364        H  0.73004995  0.33480997  0.33015682     0.10600
H365        H  0.77266698  0.25109105  0.34424897     0.10300
H366        H  0.81317358  0.26641484  0.31473369     0.11400
H367        H  0.70462847  0.30023776  0.35910615     0.11500
H368        H  0.73587514  0.24197827  0.37121480     0.13400
H369        H  0.71667879  0.22087811  0.41537887     0.09900
H370        H  0.67535778  0.21005751  0.44679894     0.12000
H371        H  0.62017453  0.26850587  0.39874678     0.08600
H372        H  0.66102426  0.27896119  0.36686951     0.11400
C373        C  0.02827637  0.54198120  0.47594687    -0.03200
C374        C  0.05526536  0.53245804  0.46512981    -0.05800
C375        C  0.07204569  0.55108176  0.44815715    -0.20900
C376        C  0.06159760  0.57908369  0.44094825     0.24800
C377        C  0.03477055  0.58883834  0.45220039    -0.18500
C378        C  0.01833729  0.57045532  0.46982569    -0.08400
C379        C  0.07858516  0.59713485  0.42077749    -0.18700
C380        C  0.06557534  0.61072077  0.39888096    -0.23500
C381        C  0.08262043  0.62400647  0.37552649     0.26900
C382        C  0.07235117  0.62075329  0.34781561    -0.20300
C383        C  0.08893988  0.63102894  0.32511040    -0.09900
C384        C  0.11592263  0.64529472  0.32968619    -0.10500
C385        C  0.12541816  0.64998824  0.35751565    -0.03400
C386        C  0.10906234  0.63919218  0.38027303    -0.18500
H387        H  0.06315306  0.51049547  0.46963665     0.10600
H388        H  0.09267565  0.54319724  0.43971558     0.10600
H389        H  0.02647993  0.61052373  0.44718601     0.10300
H390        H  0.99748606  0.57805503  0.47799711     0.11400
H391        H  0.10239076  0.59595237  0.42173539     0.11500
H392        H  0.04192930  0.60885655  0.39627860     0.13400
H393        H  0.05189060  0.60938344  0.34367414     0.09900
H394        H  0.08072314  0.62764571  0.30390157     0.12000
H395        H  0.14594045  0.66102961  0.36170350     0.08600
H396        H  0.11714957  0.64257197  0.40152214     0.11400
C397        C  0.01868967  0.54801699  0.53824404    -0.03200
C398        C  0.00183607  0.56617828  0.55578876    -0.05800
C399        C  0.01543086  0.58545043  0.57465304    -0.20900
C400        C  0.04616787  0.58701375  0.57645474     0.24800
C401        C  0.06309594  0.56941565  0.55821499    -0.18500
C402        C  0.04943079  0.55010232  0.53932392    -0.08400
C403        C  0.05929217  0.60475712  0.59962960    -0.18700
C404        C  0.08796753  0.61172446  0.60170136    -0.23500
C405        C  0.10070948  0.62543618  0.62743058     0.26900
C406        C  0.12656247  0.64209592  0.62529493    -0.20300
C407        C  0.13999408  0.65360689  0.64949097    -0.09900
C408        C  0.12809195  0.64813402  0.67629937    -0.10500
C409        C  0.10222558  0.63157284  0.67845514    -0.03400
C410        C  0.08866759  0.62033307  0.65432949    -0.18500
H411        H  0.97809363  0.56484692  0.55540714     0.10600
H412        H  0.00183651  0.59855671  0.58853181     0.10600
H413        H  0.08679261  0.56928378  0.55931748     0.10300
H414        H  0.06290775  0.53577248  0.52652208     0.11400
H415        H  0.04447841  0.61190220  0.61618583     0.11500
H416        H  0.10271918  0.60728886  0.58428474     0.13400
H417        H  0.13652034  0.64596504  0.60489161     0.09900
H418        H  0.16022483  0.66590420  0.64731252     0.12000
H419        H  0.09262985  0.62704658  0.69888857     0.08600
H420        H  0.06935443  0.60678979  0.65700003     0.11400
C421        C  0.36454449  0.75005503  0.42859310    -0.03200
C422        C  0.33770600  0.76469881  0.43203157    -0.05800
C423        C  0.31349670  0.75721164  0.41546682    -0.20900
C424        C  0.31565362  0.73517088  0.39488614     0.24800
C425        C  0.34286163  0.72098920  0.39090225    -0.18500
C426        C  0.36711970  0.72842170  0.40766558    -0.08400
C427        C  0.28853580  0.72643197  0.37955811    -0.18700
C428        C  0.28841371  0.71223359  0.35466201    -0.23500
C429        C  0.26091504  0.70327585  0.34009631     0.26900
C430        C  0.26116396  0.70000746  0.31070083    -0.20300
C431        C  0.23592262  0.69103695  0.29630461    -0.09900
C432        C  0.20987270  0.68475264  0.31104345    -0.10500
C433        C  0.20959064  0.68806797  0.34046511    -0.03400
C434        C  0.23487063  0.69702644  0.35490538    -0.18500
H435        H  0.33530841  0.78134121  0.44820482     0.10600
H436        H  0.29283237  0.76836485  0.41907626     0.10600
H437        H  0.34526091  0.70339252  0.37575664     0.10300
H438        H  0.38758934  0.71664755  0.40499915     0.11400
H439        H  0.26777317  0.73290526  0.38889241     0.11500
H440        H  0.30898040  0.70815000  0.34383428     0.13400
H441        H  0.28091842  0.70461354  0.29879695     0.09900
H442        H  0.23678517  0.68927644  0.27354476     0.12000
H443        H  0.19009813  0.68309992  0.35246168     0.08600
H444        H  0.23406434  0.69835815  0.37767711     0.11400
C445        C  0.36923273  0.75286168  0.57336941    -0.03200
C446        C  0.34581256  0.77257084  0.57630308    -0.05800
C447        C  0.32346375  0.76694535  0.59571681    -0.20900
C448        C  0.32388251  0.74127080  0.61213186     0.24800
C449        C  0.34799016  0.72200838  0.60978965    -0.18500
C450        C  0.37047249  0.72779243  0.59049565    -0.08400
C451        C  0.29872681  0.73536152  0.63121764    -0.18700
C452        C  0.29034350  0.70805913  0.63864667    -0.23500
C453        C  0.26453738  0.70176143  0.65680577     0.26900
C454        C  0.26386308  0.67514371  0.67164199    -0.20300
C455        C  0.24013380  0.66816490  0.68897514    -0.09900
C456        C  0.21633074  0.68765345  0.69188625    -0.10500
C457        C  0.21654882  0.71392937  0.67634170    -0.03400
C458        C  0.24037578  0.72094375  0.65895300    -0.18500
H459        H  0.34466886  0.79207972  0.56325047     0.10600
H460        H  0.30535531  0.78227649  0.59735378     0.10600
H461        H  0.34964147  0.70255078  0.62280039     0.10300
H462        H  0.38858894  0.71251874  0.58855558     0.11400
H463        H  0.28610975  0.75415934  0.63833620     0.11500
H464        H  0.30296117  0.68930434  0.63140180     0.13400
H465        H  0.28188579  0.65971090  0.66994675     0.09900
H466        H  0.24035018  0.64721077  0.69976671     0.12000
H467        H  0.19855221  0.72931857  0.67786097     0.08600
H468        H  0.23953357  0.74117991  0.64701972     0.11400
C469        C  0.80322501  0.50033710  0.07733747    -0.03200
C470        C  0.77821222  0.49152211  0.09227361    -0.05800
C471        C  0.78080614  0.47233750  0.11517555    -0.20900
C472        C  0.80841680  0.46159828  0.12344132     0.24800
C473        C  0.83351669  0.47077801  0.10846393    -0.18500
C474        C  0.83086437  0.48988409  0.08550541    -0.08400
C475        C  0.81029426  0.44170223  0.14826247    -0.18700
C476        C  0.83248204  0.42257569  0.15210970    -0.23500
C477        C  0.83462457  0.40222095  0.17652296     0.26900
C478        C  0.85202479  0.37703564  0.17375688    -0.20300
C479        C  0.85550172  0.35752257  0.19622461    -0.09900
C480        C  0.84147585  0.36258858  0.22228424    -0.10500
C481        C  0.82480321  0.38848610  0.22524999    -0.03400
C482        C  0.82118790  0.40794792  0.20263861    -0.18500
H483        H  0.75675598  0.49970632  0.08629425     0.10600
H484        H  0.76119507  0.46584523  0.12646874     0.10600
H485        H  0.85528448  0.46388096  0.11474373     0.10300
H486        H  0.85039235  0.49696525  0.07440712     0.11400
H487        H  0.79206104  0.44186854  0.16297023     0.11500
H488        H  0.84920694  0.42050996  0.13595785     0.13400
H489        H  0.86322030  0.37248978  0.15408325     0.09900
H490        H  0.87005185  0.33919038  0.19292902     0.12000
H491        H  0.81464118  0.39376862  0.24525464     0.08600
H492        H  0.80853749  0.42774808  0.20598298     0.11400
C493        C  0.80006574  0.49310257  0.92968871    -0.03200
C494        C  0.77715752  0.49160581  0.90990460    -0.05800
C495        C  0.77751927  0.47037399  0.88863898    -0.20900
C496        C  0.80095172  0.45049515  0.88654222     0.24800
C497        C  0.82351539  0.45149858  0.90690568    -0.18500
C498        C  0.82307161  0.47270246  0.92826708    -0.08400
C499        C  0.80101662  0.42903619  0.86294376    -0.18700
C500        C  0.82595851  0.41856755  0.85147471    -0.23500
C501        C  0.82727175  0.39814067  0.82694618     0.26900
C502        C  0.85460878  0.38620120  0.81970240    -0.20300
C503        C  0.85744677  0.36758425  0.79648363    -0.09900
C504        C  0.83298691  0.36010041  0.77977507    -0.10500
C505        C  0.80551966  0.37221985  0.78698551    -0.03400
C506        C  0.80271118  0.39100057  0.81020061    -0.18500
H507        H  0.75913535  0.50710332  0.91082137     0.10600
H508        H  0.75975709  0.46986892  0.87341090     0.10600
H509        H  0.84140207  0.43587276  0.90654566     0.10300
H510        H  0.84079478  0.47343030  0.94351969     0.11400
H511        H  0.77985907  0.42304089  0.85422664     0.11500
H512        H  0.84684060  0.42570598  0.86016833     0.13400
H513        H  0.87400131  0.39143380  0.83198540     0.09900
H514        H  0.87899822  0.35906698  0.79137966     0.12000
H515        H  0.78604407  0.36811935  0.77468255     0.08600
H516        H  0.78129161  0.40015585  0.81435820     0.11400
C517        C  0.36140317  0.18203656  0.72141936    -0.03200
C518        C  0.38684961  0.19868800  0.72696711    -0.05800
C519        C  0.40676831  0.20537828  0.70558199    -0.20900
C520        C  0.40199238  0.19558378  0.67793475     0.24800
C521        C  0.37626143  0.17956638  0.67198981    -0.18500
C522        C  0.35628725  0.17275835  0.69346200    -0.08400
C523        C  0.42414219  0.20305118  0.65602636    -0.18700
C524        C  0.42715113  0.18821696  0.63159687    -0.23500
C525        C  0.45007881  0.19499840  0.61023264     0.26900
C526        C  0.45773696  0.17312277  0.59067990    -0.20300
C527        C  0.47910635  0.17842658  0.57019061    -0.09900
C528        C  0.49312232  0.20580389  0.56875224    -0.10500
C529        C  0.48528309  0.22793248  0.58791322    -0.03400
C530        C  0.46390228  0.22265731  0.60844132    -0.18500
H531        H  0.39152082  0.20624730  0.74818085     0.10600
H532        H  0.42622961  0.21797200  0.71078158     0.10600
H533        H  0.37120829  0.17243049  0.65077398     0.10300
H534        H  0.33718424  0.16011799  0.68773171     0.11400
H535        H  0.43960737  0.22038365  0.66115555     0.11500
H536        H  0.41339751  0.16920762  0.62758046     0.13400
H537        H  0.44730346  0.15174276  0.59140325     0.09900
H538        H  0.48484270  0.16114003  0.55549369     0.12000
H539        H  0.49566399  0.24932299  0.58684734     0.08600
H540        H  0.45801807  0.24045787  0.62242655     0.11400
C541        C  0.44941079  0.02545906  0.96020512    -0.03200
C542        C  0.42873217  0.00982132  0.94411127    -0.05800
C543        C  0.40971197  0.02460350  0.92572969    -0.20900
C544        C  0.41136497  0.05524254  0.92264473     0.24800
C545        C  0.43130572  0.07100128  0.93966058    -0.18500
C546        C  0.45017986  0.05621771  0.95818243    -0.08400
C547        C  0.39262958  0.06993390  0.90101754    -0.18700
C548        C  0.40127207  0.09444754  0.88739770    -0.23500
C549        C  0.38496379  0.10847523  0.86366729     0.26900
C550        C  0.40059375  0.12736411  0.84581281    -0.20300
C551        C  0.38676713  0.14122687  0.82317720    -0.09900
C552        C  0.35675917  0.13662922  0.81761682    -0.10500
C553        C  0.34076450  0.11827245  0.83584286    -0.03400
C554        C  0.35472348  0.10424518  0.85865345    -0.18500
H555        H  0.42775876  0.98607258  0.94535589     0.10600
H556        H  0.39439658  0.01196040  0.91311561     0.10600
H557        H  0.43259648  0.09471151  0.93855022     0.10300
H558        H  0.46607764  0.06872943  0.97023273     0.11400
H559        H  0.37267913  0.05879972  0.89448442     0.11500
H560        H  0.42261550  0.10371350  0.89244236     0.13400
H561        H  0.42377278  0.13135979  0.84929674     0.09900
H562        H  0.39969446  0.15587937  0.81019026     0.12000
H563        H  0.31763016  0.11432706  0.83220865     0.08600
H564        H  0.34172137  0.09042158  0.87235124     0.11400
C565        C  0.36537481  0.16980695  0.26740453    -0.03200
C566        C  0.39170256  0.18479093  0.26133050    -0.05800
C567        C  0.41185215  0.19172224  0.28261357    -0.20900
C568        C  0.40661834  0.18363640  0.31071829     0.24800
C569        C  0.38030455  0.16880936  0.31706057    -0.18500
C570        C  0.36004389  0.16188824  0.29573242    -0.08400
C571        C  0.42887973  0.19168828  0.33261748    -0.18700
C572        C  0.43107946  0.17854249  0.35810061    -0.23500
C573        C  0.45404206  0.18572817  0.37963489     0.26900
C574        C  0.45905998  0.16568810  0.40172544    -0.20300
C575        C  0.48021850  0.17138031  0.42250297    -0.09900
C576        C  0.49677167  0.19738086  0.42177471    -0.10500
C577        C  0.49166345  0.21764406  0.39996925    -0.03400
C578        C  0.47049885  0.21198525  0.37916063    -0.18500
H579        H  0.39665211  0.19128227  0.23986728     0.10600
H580        H  0.43177818  0.20332255  0.27700791     0.10600
H581        H  0.37491000  0.16285330  0.33851167     0.10300
H582        H  0.34041908  0.15041812  0.30197007     0.11400
H583        H  0.44500055  0.20806682  0.32665295     0.11500
H584        H  0.41635448  0.16056547  0.36311280     0.13400
H585        H  0.44662086  0.14543177  0.40286162     0.09900
H586        H  0.48365688  0.15552956  0.43923631     0.12000
H587        H  0.50388697  0.23805059  0.39927426     0.08600
H588        H  0.46687473  0.22852407  0.36317329     0.11400
C589        C  0.45879034  0.03577857  0.02264161    -0.03200
C590        C  0.47195968  0.05931041  0.03696412    -0.05800
C591        C  0.45566042  0.07663959  0.05555132    -0.20900
C592        C  0.42592872  0.07053970  0.06079841     0.24800
C593        C  0.41237357  0.04754438  0.04567124    -0.18500
C594        C  0.42869999  0.03038131  0.02668883    -0.08400
C595        C  0.41064979  0.08835054  0.08276784    -0.18700
C596        C  0.38660427  0.07962992  0.09717855    -0.23500
C597        C  0.37497521  0.09607282  0.12207431     0.26900
C598        C  0.34527814  0.09321007  0.12967494    -0.20300
C599        C  0.33419373  0.10744840  0.15370730    -0.09900
C600        C  0.35273953  0.12441853  0.17097353    -0.10500
C601        C  0.38244446  0.12718007  0.16336234    -0.03400
C602        C  0.39344074  0.11314407  0.13938450    -0.18500
H603        H  0.49510689  0.06390107  0.03415278     0.10600
H604        H  0.46666037  0.09430566  0.06666668     0.10600
H605        H  0.38936089  0.04256808  0.04853905     0.10300
H606        H  0.41810994  0.01226666  0.01589324     0.11400
H607        H  0.42105480  0.10894754  0.08854842     0.11500
H608        H  0.37546420  0.05945893  0.09132834     0.13400
H609        H  0.33062030  0.07989145  0.11698469     0.09900
H610        H  0.31127469  0.10464691  0.15908137     0.12000
H611        H  0.39732633  0.14040284  0.17587485     0.08600
H612        H  0.41663341  0.11520273  0.13497362     0.11400
C613        C  0.63905467  0.83987258  0.27169939    -0.03200
C614        C  0.65235935  0.82541751  0.29472124    -0.05800
C615        C  0.63621012  0.81811896  0.31882183    -0.20900
C616        C  0.60643190  0.82553868  0.32082930     0.24800
C617        C  0.59310506  0.84046658  0.29827111    -0.18500
C618        C  0.60910950  0.84749786  0.27403913    -0.08400
C619        C  0.58914984  0.81568415  0.34565042    -0.18700
C620        C  0.56664584  0.83137404  0.35620836    -0.23500
C621        C  0.54803074  0.82086569  0.37984447     0.26900
C622        C  0.53601279  0.84141313  0.39865471    -0.20300
C623        C  0.51708942  0.83234751  0.42019824    -0.09900
C624        C  0.50933942  0.80264732  0.42287658    -0.10500
C625        C  0.52118222  0.78203303  0.40406520    -0.03400
C626        C  0.54049645  0.79102180  0.38278527    -0.18500
H627        H  0.67524731  0.81905551  0.29370042     0.10600
H628        H  0.64695074  0.80642589  0.33586400     0.10600
H629        H  0.56994904  0.84579189  0.29885790     0.10300
H630        H  0.59726922  0.85813665  0.25723761     0.11400
H631        H  0.59558465  0.79530438  0.35587719     0.11500
H632        H  0.56215744  0.85312576  0.34778934     0.13400
H633        H  0.54130695  0.86452829  0.39665786     0.09900
H634        H  0.50812562  0.84852566  0.43455521     0.12000
H635        H  0.51531170  0.75904086  0.40580520     0.08600
H636        H  0.54883028  0.77476756  0.36817967     0.11400
C637        C  0.53979687  0.96328089  0.02234861    -0.03200
C638        C  0.53791094  0.93255106  0.02354318    -0.05800
C639        C  0.55570695  0.91665055  0.04209759    -0.20900
C640        C  0.57581718  0.93105189  0.05986015     0.24800
C641        C  0.57825967  0.96187270  0.05808880    -0.18500
C642        C  0.56035815  0.97778217  0.03952211    -0.08400
C643        C  0.59139963  0.91332158  0.08164107    -0.18700
C644        C  0.61423087  0.92292176  0.09728504    -0.23500
C645        C  0.62625364  0.90587679  0.12150612     0.26900
C646        C  0.65537950  0.91051634  0.13028804    -0.20300
C647        C  0.66651776  0.89618609  0.15421964    -0.09900
C648        C  0.64847963  0.87746617  0.17013014    -0.10500
C649        C  0.61950096  0.87255156  0.16115056    -0.03400
C650        C  0.60847240  0.88661216  0.13721407    -0.18500
H651        H  0.52182156  0.92093247  0.01091375     0.10600
H652        H  0.55310691  0.89301304  0.04317847     0.10600
H653        H  0.59292490  0.97399648  0.07174176     0.10300
H654        H  0.56196825  0.00152824  0.03909063     0.11400
H655        H  0.58320736  0.89122141  0.08516395     0.11500
H656        H  0.62454799  0.94379593  0.09245299     0.13400
H657        H  0.66943971  0.92547465  0.11875534     0.09900
H658        H  0.68888564  0.90049715  0.16080685     0.12000
H659        H  0.60519352  0.85796869  0.17283381     0.08600
H660        H  0.58568400  0.88306407  0.13173940     0.11400
C661        C  0.69629842  0.79286834  0.19287654    -0.03200
C662        C  0.70636783  0.76770318  0.20708588    -0.05800
C663        C  0.71732069  0.74374654  0.19193510    -0.20900
C664        C  0.71857875  0.74459248  0.16237517     0.24800
C665        C  0.70811402  0.76966603  0.14817796    -0.18500
C666        C  0.69724933  0.79360755  0.16331703    -0.08400
C667        C  0.72973382  0.71861926  0.14683729    -0.18700
C668        C  0.74254151  0.72080313  0.12136342    -0.23500
C669        C  0.75258287  0.69513360  0.10471485     0.26900
C670        C  0.77403126  0.69950874  0.08392350    -0.20300
C671        C  0.78270449  0.67641382  0.06645518    -0.09900
C672        C  0.76976176  0.64858479  0.06919786    -0.10500
C673        C  0.74847063  0.64401259  0.09008717    -0.03400
C674        C  0.73993809  0.66706778  0.10774787    -0.18500
H675        H  0.70605158  0.76667545  0.22990915     0.10600
H676        H  0.72503361  0.72459237  0.20332145     0.10600
H677        H  0.70767128  0.77064394  0.12537307     0.10300
H678        H  0.68895536  0.81244734  0.15184133     0.11400
H679        H  0.72826312  0.69738282  0.15717232     0.11500
H680        H  0.74661100  0.74242215  0.11248487     0.13400
H681        H  0.78388799  0.72096049  0.08099691     0.09900
H682        H  0.79904463  0.68037455  0.05031771     0.12000
H683        H  0.73790358  0.62279867  0.09217241     0.08600
H684        H  0.72270907  0.66306793  0.12294047     0.11400
C685        C  0.64739576  0.82472527  0.72227997    -0.03200
C686        C  0.62341337  0.80599904  0.72763007    -0.05800
C687        C  0.60345400  0.79879113  0.70634576    -0.20900
C688        C  0.60685327  0.80999243  0.67900217     0.24800
C689        C  0.63134082  0.82783654  0.67319629    -0.18500
C690        C  0.65126027  0.83521710  0.69454385    -0.08400
C691        C  0.58474461  0.80197523  0.65717338    -0.18700
C692        C  0.58082349  0.81704153  0.63296585    -0.23500
C693        C  0.55831444  0.80934127  0.61142317     0.26900
C694        C  0.54983702  0.83089775  0.59180769    -0.20300
C695        C  0.52874671  0.82473131  0.57119562    -0.09900
C696        C  0.51589796  0.79679172  0.56969715    -0.10500
C697        C  0.52461102  0.77499235  0.58887658    -0.03400
C698        C  0.54570354  0.78112135  0.60950878    -0.18500
H699        H  0.61987553  0.79725450  0.74861212     0.10600
H700        H  0.58504952  0.78466192  0.71138931     0.10600
H701        H  0.63552815  0.83599589  0.65216901     0.10300
H702        H  0.66939283  0.84914134  0.68877784     0.11400
H703        H  0.57023400  0.78379741  0.66209930     0.11500
H704        H  0.59355109  0.83678072  0.62916132     0.13400
H705        H  0.55936771  0.85269483  0.59260479     0.09900
H706        H  0.52227050  0.84178265  0.55650168     0.12000
H707        H  0.51505882  0.75321732  0.58779909     0.08600
H708        H  0.55226747  0.76354749  0.62350115     0.11400
C709        C  0.65251664  0.86646998  0.82043443    -0.03200
C710        C  0.66829833  0.88524497  0.83846025    -0.05800
C711        C  0.65443716  0.89867967  0.86157242    -0.20900
C712        C  0.62459867  0.89344521  0.86741790     0.24800
C713        C  0.60900231  0.87425461  0.84956270    -0.18500
C714        C  0.62281990  0.86082576  0.82664125    -0.08400
C715        C  0.61002033  0.90979326  0.89096722    -0.18700
C716        C  0.58424049  0.90155319  0.90268569    -0.23500
C717        C  0.56731921  0.91953582  0.92341193     0.26900
C718        C  0.53691463  0.91477540  0.92554499    -0.20300
C719        C  0.51956088  0.93218286  0.94321166    -0.09900
C720        C  0.53224081  0.95450130  0.95963269    -0.10500
C721        C  0.56282976  0.95857314  0.95850880    -0.03400
C722        C  0.58023557  0.94129072  0.94058067    -0.18500
H723        H  0.69107863  0.89033722  0.83423621     0.10600
H724        H  0.66699506  0.91354838  0.87474125     0.10600
H725        H  0.58586709  0.87005702  0.85252356     0.10300
H726        H  0.60997858  0.84606073  0.81365495     0.11400
H727        H  0.62061434  0.92981072  0.89810109     0.11500
H728        H  0.57388373  0.88135631  0.89574535     0.13400
H729        H  0.52635861  0.89802274  0.91284209     0.09900
H730        H  0.49608394  0.92844840  0.94383363     0.12000
H731        H  0.57315017  0.97566665  0.97095258     0.08600
H732        H  0.60365552  0.94513684  0.94022013     0.11400
C733        C  0.71490758  0.78901025  0.79926657    -0.03200
C734        C  0.72805033  0.76553918  0.78471533    -0.05800
C735        C  0.74135736  0.74253689  0.79947867    -0.20900
C736        C  0.74207085  0.74264823  0.82904046     0.24800
C737        C  0.72961524  0.76655461  0.84361421    -0.18500
C738        C  0.71629005  0.78957912  0.82882000    -0.08400
C739        C  0.75344922  0.71640118  0.84406291    -0.18700
C740        C  0.76457315  0.71762452  0.87032573    -0.23500
C741        C  0.77214907  0.69119754  0.88715738     0.26900
C742        C  0.79174546  0.69427234  0.90982549    -0.20300
C743        C  0.79668579  0.67094892  0.92835089    -0.09900
C744        C  0.78186921  0.64418328  0.92471684    -0.10500
C745        C  0.76287663  0.64066738  0.90164298    -0.03400
C746        C  0.75804744  0.66396864  0.88295769    -0.18500
H747        H  0.72774769  0.76479580  0.76188222     0.10600
H748        H  0.75073667  0.72437297  0.78779117     0.10600
H749        H  0.72896692  0.76696593  0.86642751     0.10300
H750        H  0.70598021  0.80718265  0.84054766     0.11400
H751        H  0.75254595  0.69549605  0.83305674     0.11500
H752        H  0.76812766  0.73889784  0.88014090     0.13400
H753        H  0.80267088  0.71504703  0.91364417     0.09900
H754        H  0.81128015  0.67407687  0.94617536     0.12000
H755        H  0.75088518  0.62031856  0.89881020     0.08600
H756        H  0.74215055  0.66100794  0.86621704     0.11400
C757        C  0.22274160  0.35976941  0.92877098    -0.03200
C758        C  0.25187703  0.35068943  0.93253215    -0.05800
C759        C  0.26394414  0.32906715  0.91526366    -0.20900
C760        C  0.24729172  0.31617853  0.89364301     0.24800
C761        C  0.21806977  0.32551078  0.88954894    -0.18500
C762        C  0.20588340  0.34720301  0.90705663    -0.08400
C763        C  0.26102604  0.29215938  0.87702931    -0.18700
C764        C  0.25348262  0.28515121  0.85039624    -0.23500
C765        C  0.26918129  0.26201335  0.83413086     0.26900
C766        C  0.27132358  0.26462240  0.80471235    -0.20300
C767        C  0.28630946  0.24344191  0.78890378    -0.09900
C768        C  0.29907313  0.21891052  0.80217109    -0.10500
C769        C  0.29655613  0.21603701  0.83154307    -0.03400
C770        C  0.28179348  0.23733334  0.84737965    -0.18500
H771        H  0.26513836  0.36004852  0.94927027     0.10600
H772        H  0.28640778  0.32222672  0.91894164     0.10600
H773        H  0.20439204  0.31554210  0.87349888     0.10300
H774        H  0.18320321  0.35368625  0.90414052     0.11400
H775        H  0.27961320  0.28106469  0.88667408     0.11500
H776        H  0.23688015  0.29801668  0.83951860     0.13400
H777        H  0.26158983  0.28324363  0.79395917     0.09900
H778        H  0.28737549  0.24596772  0.76621410     0.12000
H779        H  0.30618616  0.19741002  0.84234768     0.08600
H780        H  0.27991377  0.23413924  0.86992452     0.11400
C781        C  0.30772798  0.21124790  0.18580945    -0.03200
C782        C  0.32644329  0.23513994  0.18037106    -0.05800
C783        C  0.31720601  0.25834794  0.16322889    -0.20900
C784        C  0.28895141  0.25843541  0.15142146     0.24800
C785        C  0.27031801  0.23433437  0.15649512    -0.18500
C786        C  0.27968264  0.21098582  0.17349829    -0.08400
C787        C  0.28026351  0.28338697  0.13300729    -0.18700
C788        C  0.25219171  0.29164386  0.12879128    -0.23500
C789        C  0.24361800  0.31616902  0.10974139     0.26900
C790        C  0.21628607  0.32989778  0.11361787    -0.20300
C791        C  0.20681684  0.35196895  0.09516173    -0.09900
C792        C  0.22446125  0.36049293  0.07237097    -0.10500
C793        C  0.25187880  0.34707086  0.06857762    -0.03400
C794        C  0.26135635  0.32504573  0.08697341    -0.18500
H795        H  0.34842819  0.23572810  0.18908231     0.10600
H796        H  0.33215169  0.27641018  0.15930794     0.10600
H797        H  0.24870757  0.23317384  0.14705382     0.10300
H798        H  0.26476391  0.19301391  0.17732682     0.11400
H799        H  0.29786674  0.29613907  0.12364912     0.11500
H800        H  0.23478309  0.28070762  0.14035911     0.13400
H801        H  0.20211209  0.32332462  0.13082591     0.09900
H802        H  0.18547925  0.36194939  0.09825077     0.12000
H803        H  0.26563856  0.35322467  0.05091771     0.08600
H804        H  0.28211163  0.31445305  0.08266094     0.11400
C805        C  0.17500303  0.50587628  0.07318793    -0.03200
C806        C  0.19244977  0.53121814  0.07257252    -0.05800
C807        C  0.19097096  0.55165229  0.09452509    -0.20900
C808        C  0.17179916  0.54731794  0.11733769     0.24800
C809        C  0.15382978  0.52209905  0.11757144    -0.18500
C810        C  0.15544849  0.50158317  0.09563559    -0.08400
C811        C  0.17272415  0.56857456  0.14116108    -0.18700
C812        C  0.15113188  0.57173968  0.16032308    -0.23500
C813        C  0.15316105  0.59255821  0.18443390     0.26900
C814        C  0.12732649  0.60371597  0.19634442    -0.20300
C815        C  0.12851379  0.62282400  0.21943446    -0.09900
C816        C  0.15556083  0.63081779  0.23172621    -0.10500
C817        C  0.18147331  0.61955020  0.21954422    -0.03400
C818        C  0.18024981  0.60062142  0.19636577    -0.18500
H819        H  0.20787229  0.53468044  0.05552334     0.10600
H820        H  0.20520184  0.57071856  0.09390126     0.10600
H821        H  0.13933649  0.51748440  0.13505406     0.10300
H822        H  0.14208607  0.48191385  0.09653067     0.11400
H823        H  0.19180819  0.58281545  0.14237889     0.11500
H824        H  0.13076200  0.55965682  0.15780688     0.13400
H825        H  0.10613005  0.59769950  0.18769740     0.09900
H826        H  0.10812881  0.63104592  0.22812115     0.12000
H827        H  0.20297280  0.62475186  0.22753606     0.08600
H828        H  0.20064148  0.59181658  0.18831735     0.11400
C829        C  0.16715046  0.63511681  0.77515063    -0.03200
C830        C  0.19383289  0.62523667  0.78690963    -0.05800
C831        C  0.19407097  0.60773582  0.81107971    -0.20900
C832        C  0.16785291  0.59930661  0.82418221     0.24800
C833        C  0.14109341  0.60907891  0.81274267    -0.18500
C834        C  0.14081401  0.62676395  0.78856436    -0.08400
C835        C  0.16979071  0.58106854  0.85010609    -0.18700
C836        C  0.14811491  0.56359953  0.85966528    -0.23500
C837        C  0.15263505  0.54359160  0.88405731     0.26900
C838        C  0.13885837  0.51600039  0.88416098    -0.20300
C839        C  0.14487583  0.49567774  0.90556380    -0.09900
C840        C  0.16449515  0.50279492  0.92740471    -0.10500
C841        C  0.17719202  0.53087711  0.92807134    -0.03400
C842        C  0.17125376  0.55114949  0.90666578    -0.18500
H843        H  0.21485095  0.63082730  0.77810719     0.10600
H844        H  0.21500705  0.60063512  0.81957000     0.10600
H845        H  0.12041046  0.60364876  0.82262930     0.10300
H846        H  0.11988595  0.63414699  0.78030126     0.11400
H847        H  0.19098176  0.58040685  0.86063969     0.11500
H848        H  0.12775910  0.56169791  0.84786756     0.13400
H849        H  0.12421580  0.50979576  0.86713829     0.09900
H850        H  0.13466125  0.47419424  0.90486257     0.12000
H851        H  0.19215457  0.53686734  0.94490785     0.08600
H852        H  0.18145618  0.57260466  0.90772481     0.11400
C853        C  0.12670854  0.72811705  0.27599601    -0.03200
C854        C  0.11130643  0.73864581  0.29955076    -0.05800
C855        C  0.09886520  0.76672364  0.29933244    -0.20900
C856        C  0.10123794  0.78492455  0.27551424     0.24800
C857        C  0.11709831  0.77460867  0.25204294    -0.18500
C858        C  0.12958129  0.74648408  0.25228047    -0.08400
C859        C  0.08745115  0.81460474  0.27650174    -0.18700
C860        C  0.08095380  0.83087511  0.25348222    -0.23500
C861        C  0.06682675  0.86046688  0.25463035     0.26900
C862        C  0.05512787  0.87253970  0.22969742    -0.20300
C863        C  0.04211843  0.90045458  0.22968505    -0.09900
C864        C  0.04046489  0.91690357  0.25469739    -0.10500
C865        C  0.05221330  0.90489457  0.27960392    -0.03400
C866        C  0.06541513  0.87720542  0.27957910    -0.18500
H867        H  0.10827842  0.72500244  0.31802051     0.10600
H868        H  0.08697244  0.77411540  0.31778792     0.10600
H869        H  0.12040823  0.78822436  0.23363222     0.10300
H870        H  0.14189737  0.73931928  0.23402473     0.11400
H871        H  0.08121597  0.82247907  0.29720556     0.11500
H872        H  0.08510951  0.82186394  0.23269240     0.13400
H873        H  0.05601840  0.86029785  0.21011901     0.09900
H874        H  0.03320525  0.90905389  0.21016218     0.12000
H875        H  0.05156611  0.91709339  0.29921263     0.08600
H876        H  0.07485257  0.86949894  0.29914189     0.11400
C877        C  0.08175836  0.03644559  0.25720878    -0.03200
C878        C  0.09745579  0.04138817  0.28232659    -0.05800
C879        C  0.12517294  0.05474495  0.28173374    -0.20900
C880        C  0.13777786  0.06377535  0.25611147     0.24800
C881        C  0.12196901  0.05895076  0.23096554    -0.18500
C882        C  0.09430992  0.04555702  0.23155502    -0.08400
C883        C  0.16798490  0.07657112  0.25636280    -0.18700
C884        C  0.17884106  0.09347384  0.23537701    -0.23500
C885        C  0.20943657  0.10543517  0.23415585     0.26900
C886        C  0.21741670  0.12236167  0.21061125    -0.20300
C887        C  0.24576210  0.13388344  0.20794057    -0.09900
C888        C  0.26717100  0.12903530  0.22885498    -0.10500
C889        C  0.25928478  0.11162050  0.25228704    -0.03400
C890        C  0.23088005  0.10010308  0.25498919    -0.18500
H891        H  0.08846943  0.03467061  0.30245462     0.10600
H892        H  0.13687894  0.05795564  0.30141074     0.10600
H893        H  0.13109532  0.06465812  0.21065494     0.10300
H894        H  0.08290329  0.04202400  0.21177577     0.11400
H895        H  0.18127269  0.07194341  0.27479258     0.11500
H896        H  0.16454624  0.09913100  0.21787497     0.13400
H897        H  0.20157758  0.12676884  0.19405988     0.09900
H898        H  0.25042705  0.14690156  0.18951419     0.12000
H899        H  0.27506619  0.10639956  0.26859089     0.08600
H900        H  0.22622263  0.08695364  0.27339671     0.11400
C901        C  0.87307073  0.26386834  0.26375262    -0.03200
C902        C  0.86702023  0.24647988  0.23990389    -0.05800
C903        C  0.87810083  0.21800516  0.23774492    -0.20900
C904        C  0.89534829  0.20595380  0.25938017     0.24800
C905        C  0.90097933  0.22319610  0.28357221    -0.18500
C906        C  0.88988048  0.25179370  0.28568607    -0.08400
C907        C  0.90724107  0.17573723  0.25519458    -0.18700
C908        C  0.92354196  0.16115602  0.27432733    -0.23500
C909        C  0.93599801  0.13137657  0.26962605     0.26900
C910        C  0.94504492  0.11532384  0.29331813    -0.20300
C911        C  0.95823607  0.08789906  0.29028492    -0.09900
C912        C  0.96295787  0.07582268  0.26337696    -0.10500
C913        C  0.95372555  0.09167828  0.23952791    -0.03400
C914        C  0.94043197  0.11925779  0.24257640    -0.18500
H915        H  0.85348647  0.25472290  0.22286577     0.10600
H916        H  0.87320870  0.20535774  0.21894551     0.10600
H917        H  0.91420871  0.21524994  0.30085969     0.10300
H918        H  0.89515626  0.26469450  0.30420012     0.11400
H919        H  0.90197188  0.16504786  0.23537085     0.11500
H920        H  0.92772770  0.17083248  0.29479036     0.13400
H921        H  0.94203786  0.12412019  0.31435816     0.09900
H922        H  0.96500601  0.07629243  0.30915320     0.12000
H923        H  0.95708636  0.08295444  0.21852498     0.08600
H924        H  0.93449356  0.13117255  0.22368307     0.11400
C925        C  0.73309272  0.87757200  0.22780008    -0.03200
C926        C  0.75591468  0.86468780  0.21224411    -0.05800
C927        C  0.78454068  0.87554705  0.21425602    -0.20900
C928        C  0.79107860  0.89944598  0.23191392     0.24800
C929        C  0.76808432  0.91278265  0.24705378    -0.18500
C930        C  0.73943133  0.90182736  0.24510511    -0.08400
C931        C  0.82188047  0.91028970  0.23305640    -0.18700
C932        C  0.83285366  0.92694509  0.25412688    -0.23500
C933        C  0.86365049  0.93790751  0.25454340     0.26900
C934        C  0.87657181  0.94566276  0.28043449    -0.20300
C935        C  0.90532174  0.95655165  0.28151667    -0.09900
C936        C  0.92163446  0.96023605  0.25662564    -0.10500
C937        C  0.90857552  0.95274457  0.23070475    -0.03400
C938        C  0.87994814  0.94181282  0.22963503    -0.18500
H939        H  0.75185144  0.84568962  0.19905368     0.10600
H940        H  0.80174464  0.86497379  0.20220411     0.10600
H941        H  0.77192564  0.93188118  0.26011069     0.10300
H942        H  0.72216286  0.91248966  0.25696957     0.11400
H943        H  0.83635494  0.90311214  0.21626199     0.11500
H944        H  0.81931882  0.93188389  0.27232432     0.13400
H945        H  0.86439338  0.94323056  0.29990489     0.09900
H946        H  0.91461595  0.96243108  0.30179051     0.12000
H947        H  0.92038289  0.95560859  0.21108571     0.08600
H948        H  0.87053494  0.93716659  0.20915581     0.11400
C949        C  0.08382203  0.04238245  0.73606078    -0.03200
C950        C  0.09707422  0.05128615  0.71069802    -0.05800
C951        C  0.12432200  0.06566395  0.71096690    -0.20900
C952        C  0.13880784  0.07169024  0.73654310     0.24800
C953        C  0.12556592  0.06265789  0.76189198    -0.18500
C954        C  0.09842887  0.04830902  0.76162859    -0.08400
C955        C  0.16836799  0.08579517  0.73600776    -0.18700
C956        C  0.17978289  0.10075939  0.75805657    -0.23500
C957        C  0.21002764  0.11330528  0.75862224     0.26900
C958        C  0.21658875  0.13548504  0.77826550    -0.20300
C959        C  0.24498100  0.14706228  0.78035253    -0.09900
C960        C  0.26758448  0.13660550  0.76291335    -0.10500
C961        C  0.26113940  0.11427334  0.74336800    -0.03400
C962        C  0.23274112  0.10265188  0.74129872    -0.18500
H963        H  0.08647943  0.04702727  0.69064030     0.10600
H964        H  0.13414422  0.07209134  0.69110540     0.10600
H965        H  0.13637050  0.06589237  0.78199114     0.10300
H966        H  0.08905714  0.04153019  0.78157609     0.11400
H967        H  0.18072541  0.08423421  0.71652051     0.11500
H968        H  0.16622353  0.10466778  0.77648006     0.13400
H969        H  0.19961200  0.14402298  0.79198102     0.09900
H970        H  0.24903234  0.16465614  0.79523405     0.12000
H971        H  0.27817557  0.10551340  0.72987456     0.08600
H972        H  0.22893323  0.08493847  0.72653928     0.11400
C973        C  0.04924584  0.92236295  0.73552470    -0.03200
C974        C  0.06258553  0.91372066  0.71013882    -0.05800
C975        C  0.07752819  0.88705371  0.70825329    -0.20900
C976        C  0.07906927  0.86805061  0.73147147     0.24800
C977        C  0.06597304  0.87669326  0.75707438    -0.18500
C978        C  0.05129943  0.90371506  0.75909092    -0.08400
C979        C  0.09525097  0.83992706  0.72808850    -0.18700
C980        C  0.08889531  0.81533958  0.74269074    -0.23500
C981        C  0.10400079  0.78649486  0.73870844     0.26900
C982        C  0.09689103  0.76345170  0.75713301    -0.20300
C983        C  0.11045501  0.73604685  0.75469392    -0.09900
C984        C  0.13177814  0.73088150  0.73380403    -0.10500
C985        C  0.13847733  0.75367340  0.71492642    -0.03400
C986        C  0.12476877  0.78111284  0.71725074    -0.18500
H987        H  0.06165471  0.92769974  0.69166240     0.10600
H988        H  0.08764628  0.88106486  0.68839918     0.10600
H989        H  0.06742531  0.86293772  0.77564392     0.10300
H990        H  0.04133277  0.90987555  0.77895380     0.11400
H991        H  0.11199400  0.83957221  0.71193393     0.11500
H992        H  0.07137924  0.81613062  0.75817957     0.13400
H993        H  0.08075155  0.76664822  0.77361250     0.09900
H994        H  0.10392210  0.71885248  0.76914297     0.12000
H995        H  0.15475261  0.75063582  0.69863069     0.08600
H996        H  0.13076385  0.79774287  0.70209653     0.11400
C997        C  0.92882236  0.95648260  0.74227874    -0.03200
C998        C  0.92389851  0.93840042  0.76581948    -0.05800
C999        C  0.89725329  0.92372467  0.76917882    -0.20900
C1000       C  0.87452147  0.92735975  0.74955169     0.24800
C1001       C  0.87930004  0.94536508  0.72579990    -0.18500
C1002       C  0.90640453  0.95960386  0.72206502    -0.08400
C1003       C  0.84661979  0.91125413  0.75441377    -0.18700
C1004       C  0.82002805  0.92213970  0.74765732    -0.23500
C1005       C  0.79179534  0.90673187  0.75376838     0.26900
C1006       C  0.76646077  0.91567752  0.73924055    -0.20300
C1007       C  0.73966806  0.90136689  0.74347712    -0.09900
C1008       C  0.73745524  0.87779035  0.76253306    -0.10500
C1009       C  0.76245170  0.86952340  0.77797674    -0.03400
C1010       C  0.78932360  0.88384541  0.77373199    -0.18500
H1011       H  0.94082233  0.93542732  0.78165142     0.10600
H1012       H  0.89419683  0.90981558  0.78749634     0.10600
H1013       H  0.86235885  0.94808984  0.70996816     0.10300
H1014       H  0.90963748  0.97345790  0.70375053     0.11400
H1015       H  0.84834409  0.89033411  0.76521026     0.11500
H1016       H  0.81880035  0.94324360  0.73700140     0.13400
H1017       H  0.76750004  0.93349646  0.72411473     0.09900
H1018       H  0.72068592  0.90861638  0.73158690     0.12000
H1019       H  0.76152649  0.85134663  0.79269191     0.08600
H1020       H  0.80790870  0.87680607  0.78620535     0.11400
C1021       C  0.96350952  0.07721933  0.73703437    -0.03200
C1022       C  0.95731469  0.09044764  0.71088699    -0.05800
C1023       C  0.94316110  0.11754037  0.70955451    -0.20900
C1024       C  0.93489143  0.13227751  0.73424979     0.24800
C1025       C  0.94053617  0.11888439  0.76052971    -0.18500
C1026       C  0.95482131  0.09162746  0.76187358    -0.08400
C1027       C  0.91988773  0.16109997  0.73121042    -0.18700
C1028       C  0.91734372  0.18112448  0.75198723    -0.23500
C1029       C  0.90281809  0.21010643  0.74784002     0.26900
C1030       C  0.90950237  0.23323211  0.76635605    -0.20300
C1031       C  0.89604080  0.26068746  0.76326258    -0.09900
C1032       C  0.87540562  0.26557584  0.74162579    -0.10500
C1033       C  0.86878838  0.24243940  0.72315117    -0.03400
C1034       C  0.88205493  0.21498881  0.72630738    -0.18500
H1035       H  0.96354932  0.07995407  0.69128870     0.10600
H1036       H  0.93886854  0.12715263  0.68903820     0.10600
H1037       H  0.93371915  0.12906172  0.78005026     0.10300
H1038       H  0.95898881  0.08182685  0.78231250     0.11400
H1039       H  0.91201468  0.16654709  0.71024409     0.11500
H1040       H  0.92742871  0.17697389  0.77234774     0.13400
H1041       H  0.92531635  0.23009744  0.78319126     0.09900
H1042       H  0.90199680  0.27812901  0.77770630     0.12000
H1043       H  0.85269524  0.24512070  0.70669267     0.08600
H1044       H  0.87531539  0.19758370  0.71219573     0.11400
loop_ 
_geom_bond_atom_site_label_1 
_geom_bond_atom_site_label_2 
_geom_bond_distance 
_geom_bond_site_symmetry_2 
_ccdc_geom_bond_type 
O1           Ni9   1.935   1_655  S
O1           C11   1.285       .  A
O2           Ni9   1.933   1_545  S
O2           C12   1.285       .  A
O3           Ni9   1.907       .  S
O3           C13   1.280       .  A
O4           Ni9   1.902   1_645  S
O4           C14   1.279       .  A
O5          Ni10   1.930   1_645  S
O5           C14   1.284       .  A
O6          Ni10   1.929       .  S
O6           C13   1.284       .  A
O7          Ni10   1.911   1_545  S
O7           C12   1.280       .  A
O8          Ni10   1.907   1_655  S
O8           C11   1.279       .  A
Ni9         Ni10   2.386       .  S
C11         C997   1.481       .  S
C12         C949   1.487       .  S
C13         C973   1.481       .  S
C14        C1021   1.481       .  S
O15         Ni23   1.927   1_655  S
O15          C25   1.284       .  A
O16         Ni23   1.928   1_545  S
O16          C26   1.284       .  A
O17         Ni23   1.902   1_645  S
O17          C27   1.279       .  A
O18         Ni23   1.907       .  S
O18          C28   1.279       .  A
O19         Ni24   1.930       .  S
O19          C28   1.284       .  A
O20         Ni24   1.928   1_645  S
O20          C27   1.284       .  A
O21         Ni24   1.916   1_545  S
O21          C26   1.281       .  A
O22         Ni24   1.911   1_655  S
O22          C25   1.280       .  A
Ni23        Ni24   2.385       .  S
C25         C936   1.483       .  S
C26         C877   1.487       .  S
C27         C912   1.480       .  S
C28         C864   1.483       .  S
N29          C34   1.352   1_554  A
N29          C33   1.352       .  A
N29          H61   1.037   1_554  S
N30          C37   1.351       .  A
N30          C38   1.350       .  A
N31          C36   1.353   1_554  A
N31          C35   1.354       .  A
N31          H62   1.037   1_554  S
N32          C39   1.353       .  A
N32          C40   1.351       .  A
C33          C41   1.387       .  A
C33          C49   1.414       .  A
C34          C50   1.412       .  A
C34          C42   1.386       .  A
C35          C43   1.386       .  A
C35          C52   1.414       .  A
C36          C51   1.417       .  A
C36          C44   1.388       .  A
C37          C49   1.411       .  A
C37          C45   1.385       .  A
C38          C52   1.412       .  A
C38          C46   1.387       .  A
C39          C47   1.385       .  A
C39          C50   1.412       .  A
C40          C48   1.387       .  A
C40          C51   1.415       .  A
C41          C42   1.375   1_554  A
C41          H53   1.082       .  S
C42          H54   1.082       .  S
C43          C44   1.377   1_554  A
C43          H55   1.082       .  S
C44          H56   1.082       .  S
C45          C46   1.373       .  A
C45          H57   1.082       .  S
C46          H58   1.082       .  S
C47          C48   1.375       .  A
C47          H59   1.082       .  S
C48          H60   1.082       .  S
C49         C792   1.485       .  S
C50         C757   1.486       .  S
C51         C840   1.488       .  S
C52         C805   1.484       .  S
C63          C64   1.540       .  S
C63          C69   1.532       .  S
C63          C67   1.534       .  S
C63         C685   1.528       .  S
C64          H71   1.080       .  S
C64          C65   1.368       .  D
C65          C66   1.545       .  S
C65        C1008   1.489       .  S
C66          C70   1.548       .  S
C66          C68   1.542       .  S
C66          H72   1.109       .  S
C67          H73   1.086       .  S
C67          C68   1.366       .  D
C68         C733   1.483       .  S
C69          H74   1.086       .  S
C69          C70   1.367       .  D
C70         C709   1.497       .  S
C75          C76   1.544       .  S
C75          C81   1.539       .  S
C75          C79   1.538       .  S
C75         C613   1.532       .  S
C76          H83   1.080       .  S
C76          C77   1.366       .  D
C77          C78   1.536       .  S
C77         C648   1.485       .  S
C78          C82   1.540       .  S
C78          C80   1.536       .  S
C78          H84   1.110       .  S
C79          H85   1.086       .  S
C79          C80   1.365       .  D
C80         C661   1.481       .  S
C81          H86   1.086       .  S
C81          C82   1.369       .  D
C82         C925   1.486       .  S
C87          C88   1.535       .  S
C87          C93   1.544       .  S
C87          C91   1.535       .  S
C87         C565   1.536       .  S
C88          H95   1.086       .  S
C88          C89   1.368       .  D
C89          C90   1.544       .  S
C89         C600   1.494       .  S
C90          C94   1.551       .  S
C90          C92   1.542       .  S
C90          H96   1.107       .  S
C91          H97   1.086       .  S
C91          C92   1.365       .  D
C92         C781   1.487       .  S
C93          H98   1.079       .  S
C93          C94   1.374       .  D
C94         C888   1.505       .  S
C99         C100   1.543       .  S
C99         C105   1.530       .  S
C99         C103   1.539       .  S
C99         C517   1.529       .  S
C100        H107   1.081       .  S
C100        C101   1.370       .  D
C101        C102   1.544       .  S
C101        C960   1.490       .  S
C102        C106   1.545       .  S
C102        C104   1.540       .  S
C102        H108   1.109       .  S
C103        H109   1.086       .  S
C103        C104   1.367       .  D
C104        C768   1.486       .  S
C105        H110   1.086       .  S
C105        C106   1.364       .  D
C106        C552   1.493       .  S
C111        C720   1.492       .  S
C111        C112   1.415   1_556  A
C111        C116   1.407       .  A
C112        C637   1.484       .  S
C112        C113   1.406   1_565  A
C113        C114   1.406       .  A
C113        H118   1.085       .  S
C114        C589   1.488       .  S
C114        C115   1.415   1_554  A
C115        C541   1.485       .  S
C115        C116   1.408   1_545  A
C116        H117   1.084       .  S
N119        C124   1.351       .  A
N119        C123   1.352   1_556  A
N119        H151   1.041       .  S
N120        C127   1.351       .  A
N120        C128   1.349       .  A
N121        C126   1.354   1_554  A
N121        C125   1.353       .  A
N121        H152   1.040       .  S
N122        C129   1.351       .  A
N122        C130   1.349       .  A
C123        C131   1.388       .  A
C123        C139   1.412       .  A
C124        C140   1.410       .  A
C124        C132   1.386       .  A
C125        C133   1.386       .  A
C125        C142   1.414       .  A
C126        C141   1.416       .  A
C126        C134   1.387       .  A
C127        C139   1.410       .  A
C127        C135   1.385       .  A
C128        C142   1.411       .  A
C128        C136   1.387       .  A
C129        C137   1.385       .  A
C129        C140   1.409       .  A
C130        C138   1.387       .  A
C130        C141   1.411       .  A
C131        C132   1.374   1_554  A
C131        H143   1.082       .  S
C132        H144   1.082       .  S
C133        C134   1.377   1_554  A
C133        H145   1.082       .  S
C134        H146   1.082       .  S
C135        C136   1.374       .  A
C135        H147   1.082       .  S
C136        H148   1.082       .  S
C137        C138   1.374       .  A
C137        H149   1.082       .  S
C138        H150   1.082       .  S
C139        C672   1.485       .  S
C140        C744   1.484       .  S
C141        C493   1.485       .  S
C142        C469   1.480       .  S
N153        C158   1.353       .  A
N153        C157   1.352       .  A
N153        H185   1.037       .  S
N154        C161   1.353       .  A
N154        C162   1.353       .  A
N155        C160   1.354       .  A
N155        C159   1.354       .  A
N155        H186   1.037       .  S
N156        C163   1.352       .  A
N156        C164   1.350       .  A
C157        C165   1.389       .  A
C157        C173   1.416       .  A
C158        C174   1.412       .  A
C158        C166   1.386       .  A
C159        C167   1.386       .  A
C159        C176   1.416       .  A
C160        C175   1.419       .  A
C160        C168   1.388       .  A
C161        C173   1.415       .  A
C161        C169   1.386       .  A
C162        C176   1.415       .  A
C162        C170   1.386       .  A
C163        C171   1.385       .  A
C163        C174   1.410       .  A
C164        C172   1.388       .  A
C164        C175   1.414       .  A
C165        C166   1.373       .  A
C165        H177   1.082       .  S
C166        H178   1.082       .  S
C167        C168   1.375       .  A
C167        H179   1.082       .  S
C168        H180   1.082       .  S
C169        C170   1.374       .  A
C169        H181   1.082       .  S
C170        H182   1.082       .  S
C171        C172   1.372       .  A
C171        H183   1.082       .  S
C172        H184   1.082       .  S
C173        C421   1.486       .  S
C174        C445   1.482       .  S
C175        C696   1.485       .  S
C176        C624   1.488       .  S
C187        C188   1.536       .  S
C187        C193   1.531       .  S
C187        C191   1.543       .  S
C187        C829   1.530       .  S
C188        H195   1.086       .  S
C188        C189   1.366       .  D
C189        C190   1.537       .  S
C189        C408   1.482       .  S
C190        C194   1.548       .  S
C190        C192   1.541       .  S
C190        H196   1.108       .  S
C191        H197   1.079       .  S
C191        C192   1.368       .  D
C192        C456   1.491       .  S
C193        H198   1.085       .  S
C193        C194   1.368       .  D
C194        C984   1.493       .  S
C199        C200   1.539       .  S
C199        C205   1.534       .  S
C199        C203   1.541       .  S
C199        C816   1.531       .  S
C200        H207   1.086       .  S
C200        C201   1.371       .  D
C201        C202   1.544       .  S
C201        C853   1.490       .  S
C202        C206   1.541       .  S
C202        C204   1.541       .  S
C202        H208   1.109       .  S
C203        H209   1.080       .  S
C203        C204   1.365       .  D
C204        C432   1.488       .  S
C205        H210   1.086       .  S
C205        C206   1.365       .  D
C206        C384   1.486       .  S
C211        C212   1.540       .  S
C211        C217   1.532       .  S
C211        C215   1.541       .  S
C211        C480   1.529       .  S
C212        H219   1.080       .  S
C212        C213   1.366       .  D
C213        C214   1.543       .  S
C213        C901   1.488       .  S
C214        C218   1.540       .  S
C214        C216   1.539       .  S
C214        H220   1.109       .  S
C215        H221   1.086       .  S
C215        C216   1.369       .  D
C216        C349   1.486       .  S
C217        H222   1.086       .  S
C217        C218   1.365       .  D
C218        C325   1.484       .  S
C223        C224   1.535       .  S
C223        C229   1.535       .  S
C223        C227   1.546       .  S
C223        C504   1.527       .  S
C224        H231   1.086       .  S
C224        C225   1.363       .  D
C225        C226   1.536       .  S
C225        C277   1.480       .  S
C226        C230   1.545       .  S
C226        C228   1.540       .  S
C226        H232   1.108       .  S
C227        H233   1.080       .  S
C227        C228   1.369       .  D
C228        C301   1.491       .  S
C229        H234   1.086       .  S
C229        C230   1.366       .  D
C230       C1032   1.489       .  S
C235        C373   1.477       .  S
C235        C236   1.412       .  A
C235        C240   1.403   1_455  A
C236        C397   1.485       .  S
C236        C237   1.404   1_455  A
C237        C238   1.404       .  A
C237        H242   1.085       .  S
C238        C288   1.477       .  S
C238        C239   1.413       .  A
C239        C336   1.487       .  S
C239        C240   1.406       .  A
C240        H241   1.085       .  S
N243        C248   1.354       .  A
N243        C247   1.352       .  A
N243        H275   1.039       .  S
N244        C251   1.353       .  A
N244        C252   1.353       .  A
N245        C250   1.354       .  A
N245        C249   1.356       .  A
N245        H276   1.039       .  S
N246        C253   1.352       .  A
N246        C254   1.350       .  A
C247        C255   1.388       .  A
C247        C263   1.415       .  A
C248        C264   1.414       .  A
C248        C256   1.386       .  A
C249        C257   1.387       .  A
C249        C266   1.419       .  A
C250        C265   1.417       .  A
C250        C258   1.386       .  A
C251        C263   1.415       .  A
C251        C259   1.386       .  A
C252        C266   1.416       .  A
C252        C260   1.386       .  A
C253        C261   1.385       .  A
C253        C264   1.411       .  A
C254        C262   1.387       .  A
C254        C265   1.413       .  A
C255        C256   1.373       .  A
C255        H267   1.082       .  S
C256        H268   1.082       .  S
C257        C258   1.375       .  A
C257        H269   1.082       .  S
C258        H270   1.082       .  S
C259        C260   1.375       .  A
C259        H271   1.082       .  S
C260        H272   1.082       .  S
C261        C262   1.372       .  A
C261        H273   1.082       .  S
C262        H274   1.082       .  S
C263        C360   1.487       .  S
C264        C312   1.488       .  S
C265        C528   1.486       .  S
C266        C576   1.494       .  S
C277        C278   1.403       .  A
C277        C282   1.404       .  A
C278        C279   1.397       .  A
C278        H291   1.083       .  S
C279        C280   1.402       .  A
C279        H292   1.083       .  S
C280        C281   1.405       .  A
C280        C283   1.479       .  S
C281        C282   1.399       .  A
C281        H293   1.083       .  S
C282        H294   1.083       .  S
C283        H295   1.087       .  S
C283        C284   1.344       .  D
C284        H296   1.087       .  S
C284        C285   1.478       .  S
C285        C286   1.402       .  A
C285        C290   1.405       .  A
C286        C287   1.397       .  A
C286        H297   1.083       .  S
C287        C288   1.402       .  A
C287        H298   1.083       .  S
C288        C289   1.403       .  A
C289        C290   1.400       .  A
C289        H299   1.083       .  S
C290        H300   1.083       .  S
C301        C302   1.404       .  A
C301        C306   1.408       .  A
C302        C303   1.396       .  A
C302        H315   1.076       .  S
C303        C304   1.401       .  A
C303        H316   1.084       .  S
C304        C305   1.406       .  A
C304        C307   1.484       .  S
C305        C306   1.399       .  A
C305        H317   1.082       .  S
C306        H318   1.082       .  S
C307        H319   1.083       .  S
C307        C308   1.348       .  D
C308        H320   1.086       .  S
C308        C309   1.491       .  S
C309        C310   1.406       .  A
C309        C314   1.410       .  A
C310        C311   1.399       .  A
C310        H321   1.083       .  S
C311        C312   1.403       .  A
C311        H322   1.083       .  S
C312        C313   1.401       .  A
C313        C314   1.397       .  A
C313        H323   1.083       .  S
C314        H324   1.079       .  S
C325        C326   1.403       .  A
C325        C330   1.405       .  A
C326        C327   1.396       .  A
C326        H339   1.083       .  S
C327        C328   1.405       .  A
C327        H340   1.083       .  S
C328        C329   1.410       .  A
C328        C331   1.490       .  S
C329        C330   1.403       .  A
C329        H341   1.081       .  S
C330        H342   1.083       .  S
C331        H343   1.084       .  S
C331        C332   1.350       .  D
C332        H344   1.085       .  S
C332        C333   1.494       .  S
C333        C334   1.406       .  A
C333        C338   1.409       .  A
C334        C335   1.401       .  A
C334        H345   1.083       .  S
C335        C336   1.405       .  A
C335        H346   1.083       .  S
C336        C337   1.403       .  A
C337        C338   1.398       .  A
C337        H347   1.083   1_655  S
C338        H348   1.081       .  S
C349        C350   1.403       .  A
C349        C354   1.404       .  A
C350        C351   1.397       .  A
C350        H363   1.083       .  S
C351        C352   1.405       .  A
C351        H364   1.083       .  S
C352        C353   1.411       .  A
C352        C355   1.493       .  S
C353        C354   1.400       .  A
C353        H365   1.079       .  S
C354        H366   1.083       .  S
C355        H367   1.085       .  S
C355        C356   1.349       .  D
C356        H368   1.082       .  S
C356        C357   1.488       .  S
C357        C358   1.404       .  A
C357        C362   1.410       .  A
C358        C359   1.397       .  A
C358        H369   1.083       .  S
C359        C360   1.403       .  A
C359        H370   1.083       .  S
C360        C361   1.402       .  A
C361        C362   1.400       .  A
C361        H371   1.083       .  S
C362        H372   1.081       .  S
C373        C374   1.402       .  A
C373        C378   1.403       .  A
C374        C375   1.397       .  A
C374        H387   1.083       .  S
C375        C376   1.402       .  A
C375        H388   1.083       .  S
C376        C377   1.406       .  A
C376        C379   1.480       .  S
C377        C378   1.400       .  A
C377        H389   1.083       .  S
C378        H390   1.083   1_455  S
C379        H391   1.087       .  S
C379        C380   1.345       .  D
C380        H392   1.087       .  S
C380        C381   1.482       .  S
C381        C382   1.401       .  A
C381        C386   1.406       .  A
C382        C383   1.397       .  A
C382        H393   1.083       .  S
C383        C384   1.406       .  A
C383        H394   1.083       .  S
C384        C385   1.404       .  A
C385        C386   1.401       .  A
C385        H395   1.079       .  S
C386        H396   1.083       .  S
C397        C398   1.402       .  A
C397        C402   1.404       .  A
C398        C399   1.396       .  A
C398        H411   1.083   1_455  S
C399        C400   1.404       .  A
C399        H412   1.083       .  S
C400        C401   1.409       .  A
C400        C403   1.488       .  S
C401        C402   1.400       .  A
C401        H413   1.081       .  S
C402        H414   1.083       .  S
C403        H415   1.086       .  S
C403        C404   1.347       .  D
C404        H416   1.084       .  S
C404        C405   1.487       .  S
C405        C406   1.404       .  A
C405        C410   1.408       .  A
C406        C407   1.400       .  A
C406        H417   1.083       .  S
C407        C408   1.405       .  A
C407        H418   1.083       .  S
C408        C409   1.402       .  A
C409        C410   1.396       .  A
C409        H419   1.083       .  S
C410        H420   1.082       .  S
C421        C422   1.402       .  A
C421        C426   1.403       .  A
C422        C423   1.395       .  A
C422        H435   1.083       .  S
C423        C424   1.403       .  A
C423        H436   1.083       .  S
C424        C425   1.410       .  A
C424        C427   1.486       .  S
C425        C426   1.401       .  A
C425        H437   1.081       .  S
C426        H438   1.083       .  S
C427        H439   1.086       .  S
C427        C428   1.345       .  D
C428        H440   1.085       .  S
C428        C429   1.486       .  S
C429        C430   1.401       .  A
C429        C434   1.409       .  A
C430        C431   1.397       .  A
C430        H441   1.083       .  S
C431        C432   1.407       .  A
C431        H442   1.083       .  S
C432        C433   1.403       .  A
C433        C434   1.399       .  A
C433        H443   1.079       .  S
C434        H444   1.082       .  S
C445        C446   1.401       .  A
C445        C450   1.401       .  A
C446        C447   1.397       .  A
C446        H459   1.083       .  S
C447        C448   1.404       .  A
C447        H460   1.083       .  S
C448        C449   1.410       .  A
C448        C451   1.486       .  S
C449        C450   1.399       .  A
C449        H461   1.081       .  S
C450        H462   1.083       .  S
C451        H463   1.085       .  S
C451        C452   1.347       .  D
C452        H464   1.085       .  S
C452        C453   1.486       .  S
C453        C454   1.401       .  A
C453        C458   1.409       .  A
C454        C455   1.395       .  A
C454        H465   1.084       .  S
C455        C456   1.408       .  A
C455        H466   1.082       .  S
C456        C457   1.404       .  A
C457        C458   1.401       .  A
C457        H467   1.081       .  S
C458        H468   1.081       .  S
C469        C470   1.401       .  A
C469        C474   1.400       .  A
C470        C471   1.398       .  A
C470        H483   1.083       .  S
C471        C472   1.404       .  A
C471        H484   1.083       .  S
C472        C473   1.410       .  A
C472        C475   1.487       .  S
C473        C474   1.398       .  A
C473        H485   1.081       .  S
C474        H486   1.083       .  S
C475        H487   1.085       .  S
C475        C476   1.346       .  D
C476        H488   1.085       .  S
C476        C477   1.485       .  S
C477        C478   1.400       .  A
C477        C482   1.406       .  A
C478        C479   1.395       .  A
C478        H489   1.084       .  S
C479        C480   1.411       .  A
C479        H490   1.077       .  S
C480        C481   1.409       .  A
C481        C482   1.400       .  A
C481        H491   1.083       .  S
C482        H492   1.082       .  S
C493        C494   1.403       .  A
C493        C498   1.402       .  A
C494        C495   1.396       .  A
C494        H507   1.083       .  S
C495        C496   1.403       .  A
C495        H508   1.083       .  S
C496        C497   1.409       .  A
C496        C499   1.485       .  S
C497        C498   1.399       .  A
C497        H509   1.082       .  S
C498        H510   1.083       .  S
C499        H511   1.083       .  S
C499        C500   1.348       .  D
C500        H512   1.086       .  S
C500        C501   1.490       .  S
C501        C502   1.402       .  A
C501        C506   1.408       .  A
C502        C503   1.395       .  A
C502        H513   1.083       .  S
C503        C504   1.407       .  A
C503        H514   1.083       .  S
C504        C505   1.410       .  A
C505        C506   1.399       .  A
C505        H515   1.077       .  S
C506        H516   1.079       .  S
C517        C518   1.409       .  A
C517        C522   1.410       .  A
C518        C519   1.395       .  A
C518        H531   1.083       .  S
C519        C520   1.401       .  A
C519        H532   1.083       .  S
C520        C521   1.408       .  A
C520        C523   1.488       .  S
C521        C522   1.401       .  A
C521        H533   1.081       .  S
C522        H534   1.077       .  S
C523        H535   1.085       .  S
C523        C524   1.348       .  D
C524        H536   1.085       .  S
C524        C525   1.488       .  S
C525        C526   1.405       .  A
C525        C530   1.410       .  A
C526        C527   1.397       .  A
C526        H537   1.083       .  S
C527        C528   1.401       .  A
C527        H538   1.083       .  S
C528        C529   1.403       .  A
C529        C530   1.399       .  A
C529        H539   1.083       .  S
C530        H540   1.081       .  S
C541        C542   1.404       .  A
C541        C546   1.403       .  A
C542        C543   1.400       .  A
C542        H555   1.083   1_545  S
C543        C544   1.404       .  A
C543        H556   1.083       .  S
C544        C545   1.409       .  A
C544        C547   1.491       .  S
C545        C546   1.400       .  A
C545        H557   1.082       .  S
C546        H558   1.083       .  S
C547        H559   1.085       .  S
C547        C548   1.348       .  D
C548        H560   1.086       .  S
C548        C549   1.490       .  S
C549        C550   1.401       .  A
C549        C554   1.410       .  A
C550        C551   1.394       .  A
C550        H561   1.084       .  S
C551        C552   1.407       .  A
C551        H562   1.082       .  S
C552        C553   1.406       .  A
C553        C554   1.406       .  A
C553        H563   1.082       .  S
C554        H564   1.081       .  S
C565        C566   1.410       .  A
C565        C570   1.412       .  A
C566        C567   1.398       .  A
C566        H579   1.083       .  S
C567        C568   1.403       .  A
C567        H580   1.083       .  S
C568        C569   1.408       .  A
C568        C571   1.495       .  S
C569        C570   1.403       .  A
C569        H581   1.081       .  S
C570        H582   1.077       .  S
C571        H583   1.084       .  S
C571        C572   1.351       .  D
C572        H584   1.084       .  S
C572        C573   1.496       .  S
C573        C574   1.407       .  A
C573        C578   1.411       .  A
C574        C575   1.401       .  A
C574        H585   1.083       .  S
C575        C576   1.403       .  A
C575        H586   1.083       .  S
C576        C577   1.404       .  A
C577        C578   1.402       .  A
C577        H587   1.083       .  S
C578        H588   1.080       .  S
C589        C590   1.402       .  A
C589        C594   1.406       .  A
C590        C591   1.397       .  A
C590        H603   1.083       .  S
C591        C592   1.405       .  A
C591        H604   1.083       .  S
C592        C593   1.410       .  A
C592        C595   1.493       .  S
C593        C594   1.406       .  A
C593        H605   1.081       .  S
C594        H606   1.083       .  S
C595        H607   1.085       .  S
C595        C596   1.351       .  D
C596        H608   1.085       .  S
C596        C597   1.495       .  S
C597        C598   1.407       .  A
C597        C602   1.408       .  A
C598        C599   1.405       .  A
C598        H609   1.083       .  S
C599        C600   1.406       .  A
C599        H610   1.083       .  S
C600        C601   1.407       .  A
C601        C602   1.398       .  A
C601        H611   1.082       .  S
C602        H612   1.081       .  S
C613        C614   1.410       .  A
C613        C618   1.412       .  A
C614        C615   1.400       .  A
C614        H627   1.083       .  S
C615        C616   1.401       .  A
C615        H628   1.083       .  S
C616        C617   1.404       .  A
C616        C619   1.486       .  S
C617        C618   1.399       .  A
C617        H629   1.083       .  S
C618        H630   1.076       .  S
C619        H631   1.086       .  S
C619        C620   1.347       .  D
C620        H632   1.086       .  S
C620        C621   1.485       .  S
C621        C622   1.404       .  A
C621        C626   1.408       .  A
C622        C623   1.400       .  A
C622        H633   1.083       .  S
C623        C624   1.403       .  A
C623        H634   1.083       .  S
C624        C625   1.403       .  A
C625        C626   1.401       .  A
C625        H635   1.083       .  S
C626        H636   1.082       .  S
C637        C638   1.402       .  A
C637        C642   1.404       .  A
C638        C639   1.397       .  A
C638        H651   1.083       .  S
C639        C640   1.405       .  A
C639        H652   1.083       .  S
C640        C641   1.409       .  A
C640        C643   1.489       .  S
C641        C642   1.400       .  A
C641        H653   1.081       .  S
C642        H654   1.083   1_565  S
C643        H655   1.086       .  S
C643        C644   1.349       .  D
C644        H656   1.084       .  S
C644        C645   1.489       .  S
C645        C646   1.406       .  A
C645        C650   1.407       .  A
C646        C647   1.402       .  A
C646        H657   1.083       .  S
C647        C648   1.404       .  A
C647        H658   1.083       .  S
C648        C649   1.404       .  A
C649        C650   1.395       .  A
C649        H659   1.083       .  S
C650        H660   1.082       .  S
C661        C662   1.405       .  A
C661        C666   1.402       .  A
C662        C663   1.398       .  A
C662        H675   1.083       .  S
C663        C664   1.403       .  A
C663        H676   1.083       .  S
C664        C665   1.407       .  A
C664        C667   1.483       .  S
C665        C666   1.396       .  A
C665        H677   1.082       .  S
C666        H678   1.083       .  S
C667        H679   1.085       .  S
C667        C668   1.346       .  D
C668        H680   1.086       .  S
C668        C669   1.483       .  S
C669        C670   1.403       .  A
C669        C674   1.408       .  A
C670        C671   1.396       .  A
C670        H681   1.083       .  S
C671        C672   1.403       .  A
C671        H682   1.083       .  S
C672        C673   1.403       .  A
C673        C674   1.398       .  A
C673        H683   1.083       .  S
C674        H684   1.081       .  S
C685        C686   1.409       .  A
C685        C690   1.410       .  A
C686        C687   1.396       .  A
C686        H699   1.083       .  S
C687        C688   1.401       .  A
C687        H700   1.083       .  S
C688        C689   1.407       .  A
C688        C691   1.488       .  S
C689        C690   1.399       .  A
C689        H701   1.081       .  S
C690        H702   1.077       .  S
C691        H703   1.084       .  S
C691        C692   1.348       .  D
C692        H704   1.084       .  S
C692        C693   1.487       .  S
C693        C694   1.405       .  A
C693        C698   1.410       .  A
C694        C695   1.397       .  A
C694        H705   1.083       .  S
C695        C696   1.401       .  A
C695        H706   1.083       .  S
C696        C697   1.402       .  A
C697        C698   1.398       .  A
C697        H707   1.083       .  S
C698        H708   1.081       .  S
C709        C710   1.405       .  A
C709        C714   1.408       .  A
C710        C711   1.406       .  A
C710        H723   1.082       .  S
C711        C712   1.408       .  A
C711        H724   1.083       .  S
C712        C713   1.408       .  A
C712        C715   1.498       .  S
C713        C714   1.397       .  A
C713        H725   1.080       .  S
C714        H726   1.082       .  S
C715        H727   1.085       .  S
C715        C716   1.353       .  D
C716        H728   1.084       .  S
C716        C717   1.494       .  S
C717        C718   1.406       .  A
C717        C722   1.409       .  A
C718        C719   1.399       .  A
C718        H729   1.083       .  S
C719        C720   1.403       .  A
C719        H730   1.083       .  S
C720        C721   1.407       .  A
C721        C722   1.404       .  A
C721        H731   1.083       .  S
C722        H732   1.081       .  S
C733        C734   1.406       .  A
C733        C738   1.402       .  A
C734        C735   1.397       .  A
C734        H747   1.083       .  S
C735        C736   1.401       .  A
C735        H748   1.083       .  S
C736        C737   1.409       .  A
C736        C739   1.483       .  S
C737        C738   1.399       .  A
C737        H749   1.082       .  S
C738        H750   1.083       .  S
C739        H751   1.086       .  S
C739        C740   1.344       .  D
C740        H752   1.086       .  S
C740        C741   1.483       .  S
C741        C742   1.402       .  A
C741        C746   1.410       .  A
C742        C743   1.395       .  A
C742        H753   1.083       .  S
C743        C744   1.403       .  A
C743        H754   1.083       .  S
C744        C745   1.402       .  A
C745        C746   1.399       .  A
C745        H755   1.083       .  S
C746        H756   1.082       .  S
C757        C758   1.401       .  A
C757        C762   1.405       .  A
C758        C759   1.394       .  A
C758        H771   1.083       .  S
C759        C760   1.402       .  A
C759        H772   1.083       .  S
C760        C761   1.410       .  A
C760        C763   1.486       .  S
C761        C762   1.405       .  A
C761        H773   1.082       .  S
C762        H774   1.083       .  S
C763        H775   1.086       .  S
C763        C764   1.346       .  D
C764        H776   1.086       .  S
C764        C765   1.489       .  S
C765        C766   1.403       .  A
C765        C770   1.409       .  A
C766        C767   1.400       .  A
C766        H777   1.083       .  S
C767        C768   1.407       .  A
C767        H778   1.083       .  S
C768        C769   1.403       .  A
C769        C770   1.399       .  A
C769        H779   1.083       .  S
C770        H780   1.082       .  S
C781        C782   1.406       .  A
C781        C786   1.403       .  A
C782        C783   1.397       .  A
C782        H795   1.083       .  S
C783        C784   1.402       .  A
C783        H796   1.083       .  S
C784        C785   1.408       .  A
C784        C787   1.485       .  S
C785        C786   1.400       .  A
C785        H797   1.082       .  S
C786        H798   1.079       .  S
C787        H799   1.085       .  S
C787        C788   1.347       .  D
C788        H800   1.086       .  S
C788        C789   1.487       .  S
C789        C790   1.405       .  A
C789        C794   1.408       .  A
C790        C791   1.399       .  A
C790        H801   1.083       .  S
C791        C792   1.402       .  A
C791        H802   1.083       .  S
C792        C793   1.402       .  A
C793        C794   1.396       .  A
C793        H803   1.083       .  S
C794        H804   1.081       .  S
C805        C806   1.401       .  A
C805        C810   1.403       .  A
C806        C807   1.397       .  A
C806        H819   1.083       .  S
C807        C808   1.405       .  A
C807        H820   1.083       .  S
C808        C809   1.409       .  A
C808        C811   1.487       .  S
C809        C810   1.400       .  A
C809        H821   1.081       .  S
C810        H822   1.083       .  S
C811        H823   1.086       .  S
C811        C812   1.348       .  D
C812        H824   1.085       .  S
C812        C813   1.487       .  S
C813        C814   1.402       .  A
C813        C818   1.405       .  A
C814        C815   1.399       .  A
C814        H825   1.083       .  S
C815        C816   1.409       .  A
C815        H826   1.083       .  S
C816        C817   1.412       .  A
C817        C818   1.397       .  A
C817        H827   1.076       .  S
C818        H828   1.082       .  S
C829        C830   1.410       .  A
C829        C834   1.411       .  A
C830        C831   1.395       .  A
C830        H843   1.076       .  S
C831        C832   1.401       .  A
C831        H844   1.084       .  S
C832        C833   1.405       .  A
C832        C835   1.485       .  S
C833        C834   1.400       .  A
C833        H845   1.082       .  S
C834        H846   1.083       .  S
C835        H847   1.086       .  S
C835        C836   1.347       .  D
C836        H848   1.085       .  S
C836        C837   1.486       .  S
C837        C838   1.404       .  A
C837        C842   1.408       .  A
C838        C839   1.399       .  A
C838        H849   1.083       .  S
C839        C840   1.404       .  A
C839        H850   1.083       .  S
C840        C841   1.403       .  A
C841        C842   1.397       .  A
C841        H851   1.083       .  S
C842        H852   1.082       .  S
C853        C854   1.404       .  A
C853        C858   1.407       .  A
C854        C855   1.398       .  A
C854        H867   1.082       .  S
C855        C856   1.404       .  A
C855        H868   1.083       .  S
C856        C857   1.408       .  A
C856        C859   1.490       .  S
C857        C858   1.401       .  A
C857        H869   1.081       .  S
C858        H870   1.082       .  S
C859        H871   1.083       .  S
C859        C860   1.351       .  D
C860        H872   1.084       .  S
C860        C861   1.494       .  S
C861        C862   1.407       .  A
C861        C866   1.408       .  A
C862        C863   1.402       .  A
C862        H873   1.083       .  S
C863        C864   1.404       .  A
C863        H874   1.083       .  S
C864        C865   1.406       .  A
C865        C866   1.396       .  A
C865        H875   1.083       .  S
C866        H876   1.080       .  S
C877        C878   1.406       .  A
C877        C882   1.407       .  A
C878        C879   1.401       .  A
C878        H891   1.083       .  S
C879        C880   1.406       .  A
C879        H892   1.083       .  S
C880        C881   1.408       .  A
C880        C883   1.494       .  S
C881        C882   1.400       .  A
C881        H893   1.081       .  S
C882        H894   1.083       .  S
C883        H895   1.082       .  S
C883        C884   1.352       .  D
C884        H896   1.085       .  S
C884        C885   1.497       .  S
C885        C886   1.404       .  A
C885        C890   1.409       .  A
C886        C887   1.399       .  A
C886        H897   1.083       .  S
C887        C888   1.407       .  A
C887        H898   1.077       .  S
C888        C889   1.411       .  A
C889        C890   1.402       .  A
C889        H899   1.081       .  S
C890        H900   1.079       .  S
C901        C902   1.407       .  A
C901        C906   1.402       .  A
C902        C903   1.395       .  A
C902        H915   1.082       .  S
C903        C904   1.402       .  A
C903        H916   1.084       .  S
C904        C905   1.413       .  A
C904        C907   1.491       .  S
C905        C906   1.400       .  A
C905        H917   1.079       .  S
C906        H918   1.082       .  S
C907        H919   1.085       .  S
C907        C908   1.346       .  D
C908        H920   1.082       .  S
C908        C909   1.486       .  S
C909        C910   1.401       .  A
C909        C914   1.411       .  A
C910        C911   1.393       .  A
C910        H921   1.084       .  S
C911        C912   1.406       .  A
C911        H922   1.083       .  S
C912        C913   1.405       .  A
C913        C914   1.401       .  A
C913        H923   1.083       .  S
C914        H924   1.081       .  S
C925        C926   1.404       .  A
C925        C930   1.405       .  A
C926        C927   1.397       .  A
C926        H939   1.083       .  S
C927        C928   1.404       .  A
C927        H940   1.083       .  S
C928        C929   1.408       .  A
C928        C931   1.488       .  S
C929        C930   1.400       .  A
C929        H941   1.081       .  S
C930        H942   1.083       .  S
C931        H943   1.085       .  S
C931        C932   1.349       .  D
C932        H944   1.085       .  S
C932        C933   1.489       .  S
C933        C934   1.405       .  A
C933        C938   1.407       .  A
C934        C935   1.401       .  A
C934        H945   1.083       .  S
C935        C936   1.405       .  A
C935        H946   1.083       .  S
C936        C937   1.406       .  A
C937        C938   1.396       .  A
C937        H947   1.083       .  S
C938        H948   1.081       .  S
C949        C950   1.406       .  A
C949        C954   1.407       .  A
C950        C951   1.403       .  A
C950        H963   1.083       .  S
C951        C952   1.406       .  A
C951        H964   1.083       .  S
C952        C953   1.407       .  A
C952        C955   1.492       .  S
C953        C954   1.398       .  A
C953        H965   1.081       .  S
C954        H966   1.083       .  S
C955        H967   1.085       .  S
C955        C956   1.351       .  D
C956        H968   1.085       .  S
C956        C957   1.491       .  S
C957        C958   1.405       .  A
C957        C962   1.408       .  A
C958        C959   1.400       .  A
C958        H969   1.083       .  S
C959        C960   1.405       .  A
C959        H970   1.083       .  S
C960        C961   1.406       .  A
C961        C962   1.401       .  A
C961        H971   1.083       .  S
C962        H972   1.081       .  S
C973        C974   1.405       .  A
C973        C978   1.406       .  A
C974        C975   1.394       .  A
C974        H987   1.083       .  S
C975        C976   1.401       .  A
C975        H988   1.084       .  S
C976        C977   1.409       .  A
C976        C979   1.486       .  S
C977        C978   1.403       .  A
C977        H989   1.082       .  S
C978        H990   1.083       .  S
C979        H991   1.082       .  S
C979        C980   1.347       .  D
C980        H992   1.086       .  S
C980        C981   1.494       .  S
C981        C982   1.403       .  A
C981        C986   1.412       .  A
C982        C983   1.397       .  A
C982        H993   1.084       .  S
C983        C984   1.408       .  A
C983        H994   1.082       .  S
C984        C985   1.404       .  A
C985        C986   1.401       .  A
C985        H995   1.081       .  S
C986        H996   1.079       .  S
C997        C998   1.405       .  A
C997       C1002   1.406       .  A
C998        C999   1.395       .  A
C998       H1011   1.083       .  S
C999       C1000   1.400       .  A
C999       H1012   1.084       .  S
C1000      C1001   1.409       .  A
C1000      C1003   1.485       .  S
C1001      C1002   1.406       .  A
C1001      H1013   1.082       .  S
C1002      H1014   1.083       .  S
C1003      H1015   1.084       .  S
C1003      C1004   1.347       .  D
C1004      H1016   1.086       .  S
C1004      C1005   1.493       .  S
C1005      C1006   1.403       .  A
C1005      C1010   1.412       .  A
C1006      C1007   1.398       .  A
C1006      H1017   1.083       .  S
C1007      C1008   1.406       .  A
C1007      H1018   1.083       .  S
C1008      C1009   1.404       .  A
C1009      C1010   1.401       .  A
C1009      H1019   1.083       .  S
C1010      H1020   1.080       .  S
C1021      C1022   1.406       .  A
C1021      C1026   1.405       .  A
C1022      C1023   1.393       .  A
C1022      H1035   1.083       .  S
C1023      C1024   1.401       .  A
C1023      H1036   1.084       .  S
C1024      C1025   1.410       .  A
C1024      C1027   1.486       .  S
C1025      C1026   1.402       .  A
C1025      H1037   1.081       .  S
C1026      H1038   1.083       .  S
C1027      H1039   1.084       .  S
C1027      C1028   1.347       .  D
C1028      H1040   1.085       .  S
C1028      C1029   1.488       .  S
C1029      C1030   1.403       .  A
C1029      C1034   1.408       .  A
C1030      C1031   1.399       .  A
C1030      H1041   1.083       .  S
C1031      C1032   1.407       .  A
C1031      H1042   1.082       .  S
C1032      C1033   1.402       .  A
C1033      C1034   1.396       .  A
C1033      H1043   1.076       .  S
C1034      H1044   1.081       .  S
