geometry optimzed in LAMMPS
_audit_creation_date              2020-11-30 
_audit_creation_method            'lammps2cif' 
_symmetry_space_group_name_H-M    'P1' 
_symmetry_Int_Tables_number       1 
_symmetry_cell_setting            triclinic 
loop_ 
_symmetry_equiv_pos_as_xyz 
  x,y,z 
_cell_length_a                    29.03859823 
_cell_length_b                    29.344311636027715 
_cell_length_c                    39.64179428174482 
_cell_angle_alpha                 90.4511392618237 
_cell_angle_beta                  90.28910038941717 
_cell_angle_gamma                 120.02816614121494 
loop_ 
_atom_site_label 
_atom_site_type_symbol 
_atom_site_fract_x 
_atom_site_fract_y 
_atom_site_fract_z 
_atom_site_charge 
O1          O  0.46407279  0.37195005  0.31838090    -0.75900
O2          O  0.40015145  0.33221284  0.27817705    -0.54800
C3          C  0.41802710  0.33565942  0.30832351     0.77800
O4          O  0.50482753  0.59135151  0.33543398    -0.60500
O5          O  0.57970405  0.63522971  0.30383289    -0.53600
C6          C  0.55209735  0.63093615  0.32982968     0.69800
O7          O  0.36495228  0.41774954  0.31831595    -0.75100
O8          O  0.33799612  0.37720457  0.26792266    -0.55700
C9          C  0.33237156  0.37781419  0.29958702     0.75800
O10         O  0.61111769  0.51983073  0.32886923    -0.60200
O11         O  0.64000473  0.59575723  0.30037451    -0.53300
C12         C  0.64117702  0.57001689  0.32597381     0.72400
Zr13       Zr  0.54034933  0.44852903  0.29452725     2.54700
O14         O  0.56396256  0.41202686  0.34223749    -0.80800
O15         O  0.59251579  0.41042239  0.27321878    -0.94200
Zr16       Zr  0.44080176  0.50750686  0.30409823     2.64700
O17         O  0.41567222  0.50446528  0.36309952    -0.99200
O18         O  0.37720674  0.53763055  0.29520107    -0.81200
O19         O  0.45824848  0.44141939  0.29054417    -0.84600
O20         O  0.52838985  0.52137819  0.30564487    -2.19300
O21         O  0.63272258  0.56148002  0.18146171    -0.68000
O22         O  0.65159897  0.61199570  0.22865672    -0.52500
C23         C  0.66181725  0.60516359  0.19842465     0.70800
O24         O  0.38271229  0.46320413  0.17088633    -0.60900
O25         O  0.35272326  0.38644934  0.19900159    -0.52900
C26         C  0.35079463  0.41363907  0.17453410     0.72600
O27         O  0.52345452  0.62186169  0.18719095    -0.72300
O28         O  0.58803955  0.65313367  0.22770843    -0.51000
C29         C  0.56984623  0.65600220  0.19880384     0.74000
O30         O  0.47504615  0.40276359  0.16031049    -0.67600
O31         O  0.42265532  0.34551838  0.19942153    -0.54800
C32         C  0.43353236  0.35875912  0.16868144     0.72400
Zr33       Zr  0.55020400  0.47337283  0.19477584     2.77500
O34         O  0.57693183  0.47219659  0.13663388    -0.98400
O35         O  0.60076905  0.42810973  0.20123174    -0.79200
Zr36       Zr  0.45300028  0.53428461  0.20468265     2.70100
O37         O  0.43355763  0.55989989  0.15044735    -0.80400
O38         O  0.39684640  0.56893135  0.22394568    -0.99500
Zr39       Zr  0.42004960  0.40400536  0.24042644     2.21500
Zr40       Zr  0.57192953  0.57722882  0.25941830     2.11100
O41         O  0.53995883  0.54692446  0.20365741    -2.48200
O42         O  0.46708447  0.46421076  0.20034430    -0.80200
O43         O  0.58764019  0.50615759  0.24969486    -0.72400
O44         O  0.40521936  0.47616398  0.24894379    -2.33400
O45         O  0.50640714  0.41290165  0.23980777    -2.29600
O46         O  0.48594782  0.56880554  0.25977103    -0.74200
H47         H  0.54175500  0.53590835  0.32740462     0.77800
H48         H  0.36782202  0.46611645  0.24734413     0.78900
H49         H  0.55915578  0.56941716  0.18538353     0.81100
H50         H  0.50499490  0.37997561  0.23630152     0.78700
H51         H  0.34713850  0.51570220  0.31022912     0.41800
H52         H  0.41700165  0.60687664  0.21859802     0.40700
H53         H  0.45777485  0.55669830  0.13433857     0.40400
H54         H  0.57800060  0.50317863  0.12600640     0.38400
H55         H  0.63791756  0.45496031  0.19609858     0.41500
H56         H  0.57332482  0.37324169  0.28043430     0.36300
H57         H  0.54540913  0.41633934  0.36181896     0.42400
H58         H  0.44791760  0.51253683  0.37635705     0.38800
H59         H  0.61458232  0.48129901  0.13817335     0.43700
H60         H  0.62572447  0.42707393  0.28686466     0.42400
H61         H  0.41135607  0.53559450  0.36645138     0.42600
H62         H  0.36618425  0.55391414  0.20805375     0.42900
O63         O  0.06837334  0.43177872  0.32020927    -0.75900
O64         O  0.02872441  0.37405505  0.27642701    -0.54800
C65         C  0.05304052  0.38700100  0.30497727     0.77800
O66         O  0.91768717  0.54045651  0.32154378    -0.60500
O67         O  0.97602025  0.61531817  0.29446258    -0.53600
C68         C  0.94232729  0.59077087  0.31757623     0.69800
O69         O  0.91588384  0.38954178  0.32371306    -0.75100
O70         O  0.93130076  0.34277671  0.28448129    -0.55700
C71         C  0.92116756  0.35018140  0.31486968     0.75800
O72         O  0.08834416  0.59936965  0.33592672    -0.60200
O73         O  0.09185006  0.64725510  0.29193028    -0.53300
C74         C  0.08941542  0.64072315  0.32356440     0.72400
Zr75       Zr  0.07428315  0.51755593  0.30466081     2.54700
O76         O  0.09025079  0.50994019  0.36424985    -0.80800
O77         O  0.17067296  0.55678838  0.30079685    -0.94200
Zr78       Zr  0.91581112  0.46318882  0.29498548     2.64700
O79         O  0.85886680  0.43723016  0.34459733    -0.99200
O80         O  0.82264727  0.41917689  0.27708626    -0.81200
O81         O  0.98874344  0.45262082  0.29258739    -0.84600
O82         O  0.00234550  0.53490138  0.30445309    -2.19300
O83         O  0.10428847  0.61915699  0.17950337    -0.68000
O84         O  0.07886976  0.65797518  0.21909560    -0.52500
C85         C  0.09455649  0.65548688  0.18934487     0.70800
O86         O  0.92606264  0.40427647  0.16268664    -0.60900
O87         O  0.91837236  0.35046983  0.20474505    -0.52900
C88         C  0.91997515  0.35992763  0.17326400     0.72600
O89         O  0.93139054  0.56708311  0.18294112    -0.72300
O90         O  0.97852042  0.62542558  0.22497295    -0.51000
C91         C  0.95111659  0.61322957  0.19783085     0.74000
O92         O  0.07588646  0.45896545  0.17136998    -0.67600
O93         O  0.02535158  0.38442494  0.20064095    -0.54800
C94         C  0.05345316  0.40885953  0.17510592     0.72400
Zr95       Zr  0.08715711  0.53489797  0.20413315     2.77500
O96         O  0.13750586  0.54958739  0.15214399    -0.98400
O97         O  0.17874674  0.57036825  0.22379311    -0.79200
Zr98       Zr  0.92901684  0.47999499  0.19475435     2.70100
O99         O  0.91332198  0.48642905  0.13497637    -0.80400
O100        O  0.83216788  0.43347124  0.19720259    -0.99500
Zr101      Zr  0.98468548  0.40950630  0.24409608     2.21500
Zr102      Zr  0.02025878  0.58805444  0.25564213     2.11100
O103        O  0.01518299  0.55142614  0.20117687    -2.48200
O104        O  0.00080865  0.46755895  0.20195562    -0.80200
O105        O  0.08573046  0.56665656  0.25694123    -0.72400
O106        O  0.90969133  0.42236151  0.24182571    -2.33400
O107        O  0.07458715  0.47922375  0.25094978    -2.29600
O108        O  0.93044164  0.51895897  0.24818176    -0.74200
H109        H  0.00129451  0.55003749  0.32574078     0.77800
H110        H  0.87653346  0.38989348  0.23925210     0.78900
H111        H  0.01551743  0.57166480  0.18200193     0.81100
H112        H  0.09927792  0.46673529  0.25052640     0.78700
H113        H  0.80777411  0.38201553  0.28378957     0.41800
H114        H  0.82089281  0.44663991  0.17771863     0.40700
H115        H  0.94930239  0.50572453  0.12516550     0.40400
H116        H  0.11412020  0.54951133  0.13385325     0.38400
H117        H  0.19591440  0.60878827  0.22024590     0.41500
H118        H  0.17718836  0.52719248  0.30481391     0.36300
H119        H  0.05603017  0.49982572  0.37535774     0.42400
H120        H  0.88322532  0.45575805  0.36392892     0.38800
H121        H  0.16719090  0.58640168  0.15347536     0.43700
H122        H  0.18498315  0.57919819  0.32127302     0.42400
H123        H  0.83711692  0.45428757  0.34239264     0.42600
H124        H  0.82093270  0.39659642  0.19102691     0.42900
O125        O  0.37263219  0.90674092  0.31558720    -0.75900
O126        O  0.33443922  0.93545965  0.27776280    -0.54800
C127        C  0.33509152  0.91520811  0.30607774     0.77800
O128        O  0.60814080  0.07242619  0.33381376    -0.60500
O129        O  0.64264457  0.03714486  0.29764214    -0.53600
C130        C  0.64330149  0.05930947  0.32587016     0.69800
O131        O  0.44499946  0.05729142  0.33545455    -0.75100
O132        O  0.38109698  0.03547083  0.29546855    -0.55700
C133        C  0.39858706  0.04843048  0.32589752     0.75800
O134        O  0.52105616  0.89881763  0.31087801    -0.60200
O135        O  0.58544930  0.93089316  0.27170574    -0.53300
C136        C  0.56812987  0.91168720  0.30068508     0.72400
Zr137      Zr  0.44881784  0.90999637  0.28648008     2.54700
O138        O  0.42188807  0.84931549  0.33364354    -0.80800
O139        O  0.39910543  0.82361014  0.25926280    -0.94200
Zr140      Zr  0.52541133  0.06507301  0.30893248     2.64700
O141        O  0.52979572  0.07978289  0.36989305    -0.99200
O142        O  0.56681977  0.16060234  0.30818193    -0.81200
O143        O  0.45037301  0.98846894  0.29293295    -0.84600
O144        O  0.53028752  0.98818947  0.29926138    -2.19300
O145        O  0.53957055  0.93426447  0.16532608    -0.68000
O146        O  0.60973113  0.97099775  0.20194270    -0.52500
C147        C  0.58792091  0.94811726  0.17366020     0.70800
O148        O  0.46789948  0.09587748  0.18083549    -0.60900
O149        O  0.40256211  0.06934981  0.21920557    -0.52900
C150        C  0.42148569  0.08625070  0.18996381     0.72600
O151        O  0.62693796  0.11047595  0.18783932    -0.72300
O152        O  0.65993866  0.07506573  0.22474003    -0.51000
C153        C  0.66182413  0.09780928  0.19698819     0.74000
O154        O  0.38618370  0.93865943  0.16332869    -0.67600
O155        O  0.34700807  0.96727588  0.20061534    -0.54800
C156        C  0.34960940  0.94917833  0.17134628     0.72400
Zr157      Zr  0.46564144  0.94326007  0.18857310     2.77500
O158        O  0.47292536  0.96282611  0.12855653    -0.98400
O159        O  0.41955806  0.84862537  0.17793739    -0.79200
Zr160      Zr  0.54224681  0.09713260  0.21133702     2.70100
O161        O  0.57167711  0.15478457  0.16259000    -0.80400
O162        O  0.57773194  0.18446001  0.23667623    -0.99500
Zr163      Zr  0.40925782  0.00206592  0.24839989     2.21500
Zr164      Zr  0.58225885  0.00458309  0.24949660     2.11100
O165        O  0.54702736  0.02031084  0.19952938    -2.48200
O166        O  0.46550662  0.01781915  0.20498718    -0.80200
O167        O  0.50132278  0.92468503  0.23743996    -0.72400
O168        O  0.48918056  0.08329340  0.26026384    -2.33400
O169        O  0.40986376  0.92241743  0.23669200    -2.29600
O170        O  0.58095154  0.08416265  0.26086934    -0.74200
H171        H  0.54569894  0.98382306  0.31956565     0.77800
H172        H  0.48207129  0.11176436  0.26433722     0.78900
H173        H  0.56748882  0.02465096  0.17941282     0.81100
H174        H  0.37482083  0.89353946  0.23228277     0.78700
H175        H  0.60403387  0.17380711  0.31563001     0.41800
H176        H  0.60900910  0.20786415  0.22289416     0.40700
H177        H  0.56132228  0.13075835  0.14278568     0.40400
H178        H  0.51110072  0.98769423  0.12479198     0.38400
H179        H  0.38148803  0.83805854  0.17579743     0.41500
H180        H  0.36836448  0.80289383  0.27406251     0.36300
H181        H  0.43206528  0.87197638  0.35411912     0.42400
H182        H  0.53131257  0.04966665  0.37986983     0.38800
H183        H  0.46591634  0.92975751  0.11720768     0.43700
H184        H  0.42184902  0.80756046  0.26208113     0.42400
H185        H  0.56531716  0.11068545  0.37445254     0.42600
H186        H  0.55111860  0.19503026  0.23126041     0.42900
C187        C  0.06256265  0.12776985  0.36447193     0.79600
N188        N  0.11693825  0.15162156  0.35959242    -0.78700
C189        C  0.14512928  0.20279481  0.34896748     0.82000
N190        N  0.12002325  0.22941944  0.34340410    -0.78700
C191        C  0.06794297  0.20858531  0.34755465     0.82100
N192        N  0.03842775  0.15762705  0.35859256    -0.80400
C193        C  0.10381833  0.22356117  0.06197938     0.79600
N194        N  0.15631314  0.25039217  0.07079363    -0.78700
C195        C  0.17950840  0.30186170  0.08045746     0.82000
N196        N  0.14986844  0.32548383  0.08165460    -0.78700
C197        C  0.09714113  0.29866564  0.07494971     0.82100
N198        N  0.07383289  0.24710652  0.06544348    -0.80400
C199        C  0.08592734  0.86304901  0.06394245     0.79600
N200        N  0.06190492  0.81580919  0.08032095    -0.78700
C201        C  0.09307183  0.80242132  0.09906965     0.82000
N202        N  0.14576815  0.83562638  0.10181793    -0.78700
C203        C  0.16934380  0.88285860  0.08744170     0.82100
N204        N  0.13948047  0.89697423  0.06870729    -0.80400
C205        C  0.88836124  0.09946081  0.08828744     0.79600
N206        N  0.91808104  0.15361334  0.08966612    -0.78700
C207        C  0.89351793  0.18249244  0.09583217     0.82000
N208        N  0.84090288  0.15703317  0.10123536    -0.78700
C209        C  0.81225035  0.10441889  0.10338617     0.82100
N210        N  0.83584191  0.07521403  0.09685669    -0.80400
C211        C  0.90039554  0.12732741  0.43736057     0.79600
N212        N  0.84640223  0.09756968  0.43154935    -0.78700
C213        C  0.81914439  0.11923438  0.41722328     0.82000
N214        N  0.84622581  0.16965011  0.40786908    -0.78700
C215        C  0.89948460  0.19853475  0.41100316     0.82100
N216        N  0.92740453  0.17742542  0.42537750    -0.80400
C217        C  0.21975765  0.12318836  0.43868757     0.79600
N218        N  0.24086417  0.09073672  0.43393593    -0.78700
C219        C  0.28663594  0.10733241  0.41645821     0.82000
N220        N  0.30976578  0.15526519  0.40287542    -0.78700
C221        C  0.28804672  0.18634742  0.40504691     0.82100
N222        N  0.24230923  0.17052766  0.42273210    -0.80400
C223        C  0.09292181  0.88693529  0.41198957     0.79600
N224        N  0.14579417  0.91330347  0.40415763    -0.78700
C225        C  0.17091649  0.88628042  0.39567560     0.82000
N226        N  0.14341561  0.83349775  0.39508034    -0.78700
C227        C  0.09083148  0.80601899  0.40045789     0.82100
N228        N  0.06451734  0.83276645  0.40844548    -0.80400
C229        C  0.20169340  0.10635259  0.08375388     0.79600
N230        N  0.22879722  0.08209035  0.09392602    -0.78700
C231        C  0.28116237  0.11101124  0.10203436     0.82000
N232        N  0.30628877  0.16361802  0.09997895    -0.78700
C233        C  0.28059053  0.18914086  0.09108397     0.82100
N234        N  0.22726122  0.16049425  0.08331150    -0.80400
O235        O  0.05859931  0.13094994  0.07055192    -0.87100
O236        O  0.01416214  0.03636606  0.39075275    -0.87300
O237        O  0.13853590  0.12278438  0.45768369    -0.89000
O238        O  0.97904250  0.12223852  0.45583748    -0.87700
O239        O  0.89434489  0.06004784  0.47029862    -0.87300
O240        O  0.15781164  0.05892356  0.47272268    -0.88700
O241        O  0.05337090  0.11556688  0.41996971    -0.87200
O242        O  0.07941440  0.16449693  0.01674004    -0.86700
Zr243      Zr  0.04367251  0.09324644  0.47624979     2.84300
O244        O  0.96198070  0.02513044  0.45557166    -1.08700
O245        O  0.07043191  0.06017694  0.02087052    -1.09400
C246        C  0.07925228  0.16928104  0.04912427     1.06000
C247        C  0.04057114  0.08885822  0.39274563     1.05900
C248        C  0.16927710  0.10187418  0.45802070     1.08900
C249        C  0.92734408  0.10261248  0.45566387     1.06700
H250        H  0.07748236  0.03343498  0.43606052     0.32200
O251        O  0.05313071  0.02337342  0.45472695    -1.29700
H252        H  0.97912997  0.09318325  0.02583540     0.31900
O253        O  0.98278837  0.06331675  0.02011128    -1.31300
O254        O  0.92484625  0.86094027  0.42976499    -0.87100
O255        O  0.97340773  0.95611356  0.11031219    -0.88600
O256        O  0.09408861  0.94160215  0.45609309    -0.87200
O257        O  0.83771280  0.94659594  0.45510511    -0.87200
O258        O  0.88663945  0.04394233  0.04462427    -0.87000
O259        O  0.14621069  0.04685242  0.04246443    -0.86800
O260        O  0.00525722  0.86319647  0.04428280    -0.87100
O261        O  0.85241688  0.86664716  0.04803782    -0.86600
O262        O  0.08864089  0.92471276  0.02749100    -0.87700
O263        O  0.83188490  0.92994223  0.03407467    -0.86800
O264        O  0.02975553  0.91915059  0.41514498    -0.87200
O265        O  0.10674686  0.07207004  0.08304241    -0.86900
O266        O  0.95024378  0.06620504  0.08612095    -0.86600
O267        O  0.87845901  0.92516750  0.41326448    -0.87000
O268        O  0.90677768  0.82550861  0.48325891    -0.87300
O269        O  0.93594939  0.87625674  0.08193889    -0.88600
Zr270      Zr  0.97219270  0.95680572  0.43299365     2.83100
Zr271      Zr  0.01123642  0.03360011  0.06704363     2.83500
Zr272      Zr  0.08127614  0.99205052  0.99957729     2.84100
Zr273      Zr  0.90177112  0.99421086  0.00043938     2.83400
Zr274      Zr  0.94351314  0.89576869  0.02495620     2.84200
O275        O  0.93151344  0.96446273  0.04523176    -1.09200
O276        O  0.00168805  0.92600489  0.47894262    -1.08700
C277        C  0.90560493  0.82238829  0.45078307     1.06000
C278        C  0.94864742  0.90375347  0.10888092     1.08600
C279        C  0.07014501  0.91751418  0.42848928     1.06100
C280        C  0.83718618  0.92463156  0.42661376     1.06500
C281        C  0.90972880  0.06733563  0.07261406     1.06100
C282        C  0.14776614  0.07312332  0.06912831     1.05600
C283        C  0.05677504  0.88303067  0.04341203     1.06100
C284        C  0.82245797  0.88804557  0.04955996     1.05600
H285        H  0.03840025  0.95562327  0.06425848     0.32200
O286        O  0.02406075  0.96562141  0.04580789    -1.30300
H287        H  0.87912190  0.89621116  0.47362610     0.32300
O288        O  0.91328343  0.92607852  0.47983245    -1.31700
C289        C  0.77493102  0.86744766  0.07147485     0.79600
N290        N  0.75435366  0.82037371  0.08773150    -0.78700
C291        C  0.71056958  0.80481327  0.10739004     0.82000
N292        N  0.68900638  0.83572134  0.11120951    -0.78700
C293        C  0.70979220  0.88268305  0.09664499     0.82100
N294        N  0.75324733  0.89913098  0.07693660    -0.80400
C295        C  0.78456333  0.89906018  0.40890123     0.79600
N296        N  0.75229521  0.84499021  0.40622724    -0.78700
C297        C  0.69923734  0.82416806  0.39822645     0.82000
N298        N  0.68022278  0.85702174  0.39429524    -0.78700
C299        C  0.71188187  0.90919194  0.39316764     0.82100
N300        N  0.76451385  0.93069470  0.40017348    -0.80400
C301        C  0.93037594  0.86625015  0.13781919     0.79600
N302        N  0.87620614  0.83878535  0.14369187    -0.78700
C303        C  0.85258871  0.78901635  0.15676610     0.82000
N304        N  0.88189631  0.76671132  0.16307899    -0.78700
C305        C  0.93383080  0.79088552  0.15687748     0.82100
N306        N  0.95868712  0.84066564  0.14382723    -0.80400
C307        C  0.88127908  0.77014560  0.43643949     0.79600
N308        N  0.91284192  0.75240354  0.42378157    -0.78700
C309        C  0.89024274  0.70413040  0.40918283     0.82000
N310        N  0.83698453  0.67524004  0.40596450    -0.78700
C311        C  0.80546854  0.69338482  0.41740134     0.82100
N312        N  0.82758854  0.74143019  0.43251309    -0.80400
C313        C  0.67544095  0.95649437  0.15825249    -0.09800
C314        C  0.62196107  0.93882305  0.14920551     0.06400
C315        C  0.60356142  0.91284266  0.11742082    -0.03600
C316        C  0.63679445  0.90198349  0.09744615    -0.08000
C317        C  0.68840160  0.91618470  0.10803590     0.05500
C318        C  0.70807437  0.94501143  0.13830335    -0.03000
Br319      Br  0.77663042  0.96239342  0.15606931    -0.02700
H320        H  0.69165465  0.97723537  0.18192105     0.09400
H321        H  0.62052189  0.87802839  0.07482016     0.07500
Br322      Br  0.53283943  0.88644047  0.09996374    -0.03200
C323        C  0.77855259  0.09232059  0.16013863    -0.09800
C324        C  0.76625000  0.08617797  0.12555261     0.06400
C325        C  0.72028486  0.08636574  0.11448471    -0.03600
C326        C  0.68735128  0.09201080  0.13788886    -0.08000
C327        C  0.70148223  0.10116625  0.17233931     0.05500
C328        C  0.74851168  0.10254866  0.18309492    -0.03000
Br329      Br  0.77766124  0.12520928  0.22767912    -0.02700
H330        H  0.81506882  0.09477215  0.16887202     0.09400
H331        H  0.65079798  0.08952621  0.12904802     0.07500
Br332      Br  0.70319763  0.08222248  0.06742605    -0.03200
C333        C  0.68373647  0.08504118  0.38442868    -0.09800
C334        C  0.68595022  0.06813722  0.35133557     0.06400
C335        C  0.72877309  0.05926515  0.34380513    -0.03600
C336        C  0.76698994  0.06751072  0.36852867    -0.08000
C337        C  0.76657762  0.08782213  0.40051458     0.05500
C338        C  0.72403857  0.09611636  0.40842902    -0.03000
Br339      Br  0.72175360  0.12652877  0.45093192    -0.02700
H340        H  0.65170439  0.09191601  0.39140916     0.09400
H341        H  0.80079091  0.06345877  0.36142883     0.07500
Br342      Br  0.74309262  0.04212712  0.29965610    -0.03200
C343        C  0.60506596  0.92638243  0.35888541    -0.09800
C344        C  0.60774952  0.91349097  0.32497796     0.06400
C345        C  0.65353200  0.91275605  0.31401227    -0.03600
C346        C  0.69524582  0.92508862  0.33666881    -0.08000
C347        C  0.69055972  0.93363774  0.37107762     0.05500
C348        C  0.64554227  0.93550707  0.38189329    -0.03000
Br349      Br  0.63464468  0.94261282  0.42884026    -0.02700
H350        H  0.57107254  0.92873366  0.36771132     0.09400
H351        H  0.72816000  0.92040770  0.32828644     0.07500
Br352      Br  0.65907949  0.88956690  0.26946544    -0.03200
C353        C  0.34355531  0.09601973  0.17892744    -0.09800
C354        C  0.38561731  0.09117971  0.16564938     0.06400
C355        C  0.38715442  0.08389867  0.13034919    -0.03600
C356        C  0.34883011  0.08498832  0.10934228    -0.08000
C357        C  0.30756982  0.09051792  0.12302566     0.05500
C358        C  0.30436078  0.09462374  0.15815711    -0.03000
Br359      Br  0.24917341  0.10219763  0.17925900    -0.02700
H360        H  0.34072557  0.10063719  0.20584993     0.09400
H361        H  0.35209945  0.08312176  0.08220758     0.07500
Br362      Br  0.43795831  0.06971275  0.10899988    -0.03200
C363        C  0.27241585  0.95896404  0.15149373    -0.09800
C364        C  0.30865833  0.94123405  0.14490687     0.06400
C365        C  0.30482314  0.91719055  0.11284486    -0.03600
C366        C  0.26265686  0.90638328  0.09074735    -0.08000
C367        C  0.22397212  0.91945391  0.09911684     0.05500
C368        C  0.23113740  0.94904669  0.12869643    -0.03000
Br369      Br  0.18100089  0.97080549  0.14048451    -0.02700
H370        H  0.27492698  0.97923084  0.17495787     0.09400
H371        H  0.25710723  0.88291253  0.06822369     0.07500
Br372      Br  0.35166147  0.89314726  0.09740075    -0.03200
C373        C  0.30506677  0.91857720  0.36441116    -0.09800
C374        C  0.29267753  0.90660879  0.32989655     0.06400
C375        C  0.24220190  0.89510740  0.31789766    -0.03600
C376        C  0.20651450  0.89826858  0.33971044    -0.08000
C377        C  0.21795330  0.90862462  0.37426779     0.05500
C378        C  0.26765612  0.91867451  0.38666975    -0.03000
Br379      Br  0.28508307  0.93139840  0.43374822    -0.02700
H380        H  0.34402516  0.92849969  0.37401803     0.09400
H381        H  0.16710446  0.88707310  0.33022529     0.07500
Br382      Br  0.21738534  0.86968844  0.27278782    -0.03200
C383        C  0.38208697  0.06736260  0.38544844    -0.09800
C384        C  0.36317248  0.05279347  0.35192860     0.06400
C385        C  0.31088121  0.04288126  0.34462979    -0.03600
C386        C  0.28129716  0.05057525  0.36962750    -0.08000
C387        C  0.30311432  0.07137350  0.40151360     0.05500
C388        C  0.35300863  0.07732227  0.40977629    -0.03000
Br389      Br  0.38432543  0.10259534  0.45349501    -0.02700
H390        H  0.42095356  0.07374686  0.39253888     0.09400
H391        H  0.24326074  0.04649830  0.36267698     0.07500
Br392      Br  0.27793289  0.02455570  0.30062669    -0.03200
C393        C  0.09537958  0.73799558  0.17706537    -0.09800
C394        C  0.09180465  0.69155098  0.16448476     0.06400
C395        C  0.07470849  0.67651013  0.13050030    -0.03600
C396        C  0.06664227  0.71028614  0.10953944    -0.08000
C397        C  0.07335396  0.75800022  0.12201410     0.05500
C398        C  0.08574785  0.77047089  0.15651386    -0.03000
Br399      Br  0.09851584  0.83603288  0.17586542    -0.02700
H400        H  0.10636634  0.74966205  0.20319718     0.09400
H401        H  0.05848279  0.70085172  0.08291316     0.07500
Br402      Br  0.05982911  0.61042635  0.11088586    -0.03200
C403        C  0.94400082  0.71533849  0.13991256    -0.09800
C404        C  0.95736130  0.75728137  0.16295605     0.06400
C405        C  0.96595934  0.74972713  0.19675694    -0.03600
C406        C  0.95986189  0.70166397  0.20714171    -0.08000
C407        C  0.94679425  0.65915184  0.18438798     0.05500
C408        C  0.93862298  0.66681357  0.15021424    -0.03000
Br409      Br  0.91673433  0.61200639  0.11696039    -0.02700
H410        H  0.93344765  0.71884711  0.11419455     0.09400
H411        H  0.96558482  0.69792764  0.23377724     0.07500
Br412      Br  0.98122068  0.80292026  0.23056959    -0.03200
C413        C  0.93147997  0.66713959  0.33111707    -0.09800
C414        C  0.93477122  0.62364348  0.34237659     0.06400
C415        C  0.93684138  0.61600983  0.37733329    -0.03600
C416        C  0.92821265  0.64727801  0.40017549    -0.08000
C417        C  0.92064908  0.68790140  0.38859236     0.05500
C418        C  0.92538486  0.69980503  0.35408781    -0.03000
Br419      Br  0.91988538  0.75811807  0.33726285    -0.02700
H420        H  0.93296219  0.67529933  0.30440598     0.09400
H421        H  0.92507245  0.63844127  0.42683695     0.07500
Br422      Br  0.95418063  0.56581499  0.39529610    -0.03200
C423        C  0.08150840  0.67719209  0.38047892    -0.09800
C424        C  0.08187904  0.67952286  0.34497702     0.06400
C425        C  0.07070828  0.71735750  0.33021123    -0.03600
C426        C  0.06060244  0.75070621  0.35046629    -0.08000
C427        C  0.06580612  0.75209046  0.38560360     0.05500
C428        C  0.07476448  0.71353464  0.40052617    -0.03000
Br429      Br  0.08209055  0.71211563  0.44844151    -0.02700
H430        H  0.08855546  0.64840611  0.39279511     0.09400
H431        H  0.05587821  0.78112591  0.33830841     0.07500
Br432      Br  0.07278780  0.73145196  0.28264129    -0.03200
C433        C  0.92103454  0.27610721  0.16551932    -0.09800
C434        C  0.91917911  0.31834433  0.15004493     0.06400
C435        C  0.92005148  0.31958684  0.11425126    -0.03600
C436        C  0.91942114  0.27785374  0.09551586    -0.08000
C437        C  0.92040693  0.23558671  0.11161988     0.05500
C438        C  0.92281668  0.23643516  0.14703035    -0.03000
Br439      Br  0.92163800  0.17979736  0.17188742    -0.02700
H440        H  0.92109430  0.27318671  0.19271403     0.09400
H441        H  0.91469376  0.27669803  0.06835007     0.07500
Br442      Br  0.91813363  0.37436707  0.08934858    -0.03200
C443        C  0.06843103  0.39698706  0.11434026    -0.09800
C444        C  0.05775763  0.37691084  0.14734051     0.06400
C445        C  0.04854264  0.32542211  0.15251536    -0.03600
C446        C  0.05046778  0.29590419  0.12546257    -0.08000
C447        C  0.06680126  0.31801984  0.09360230     0.05500
C448        C  0.07398970  0.36836897  0.08775452    -0.03000
Br449      Br  0.09318719  0.39995498  0.04421108    -0.02700
H450        H  0.07397155  0.43563651  0.10931358     0.09400
H451        H  0.04552340  0.25743794  0.13041263     0.07500
Br452      Br  0.03918254  0.29410019  0.19604946    -0.03200
C453        C  0.04845270  0.32706329  0.35305509    -0.09800
C454        C  0.06173866  0.34511054  0.31975957     0.06400
C455        C  0.07485716  0.31592644  0.29764022    -0.03600
C456        C  0.06268909  0.26483685  0.30544105    -0.08000
C457        C  0.04923984  0.24561086  0.33847329     0.05500
C458        C  0.04661435  0.27978027  0.36296589    -0.03000
Br459      Br  0.04973764  0.26786113  0.41017175    -0.02700
H460        H  0.04143307  0.35032010  0.37144661     0.09400
H461        H  0.07335128  0.24387568  0.28730402     0.07500
Br462      Br  0.12359534  0.35095399  0.26171654    -0.03200
C463        C  0.92579653  0.29024401  0.39960067    -0.09800
C464        C  0.92329904  0.24364680  0.38870488     0.06400
C465        C  0.92097978  0.23285487  0.35389398    -0.03600
C466        C  0.91970987  0.26758458  0.33066365    -0.08000
C467        C  0.92000900  0.31361902  0.34122774     0.05500
C468        C  0.92430047  0.32531423  0.37641951    -0.03000
Br469      Br  0.92664179  0.38680532  0.39561751    -0.02700
H470        H  0.92495449  0.29749275  0.42638239     0.09400
H471        H  0.91715166  0.25754755  0.30411403     0.07500
Br472      Br  0.91270311  0.16746827  0.33704460    -0.03200
C473        C  0.60395673  0.67568992  0.38338471    -0.09800
C474        C  0.57921207  0.67728020  0.35285732     0.06400
C475        C  0.59573455  0.72649175  0.33840522    -0.03600
C476        C  0.63859201  0.77166003  0.35204878    -0.08000
C477        C  0.66364247  0.77121272  0.38258380     0.05500
C478        C  0.64442428  0.72270537  0.39899054    -0.03000
Br479      Br  0.67092889  0.72026469  0.44285080    -0.02700
H480        H  0.59280545  0.63808311  0.39461274     0.09400
H481        H  0.65105383  0.80835538  0.33910314     0.07500
Br482      Br  0.56130236  0.73357224  0.29882387    -0.00700
C483        C  0.71989891  0.61363966  0.40898651    -0.09800
C484        C  0.75182233  0.66761741  0.40337633     0.06400
C485        C  0.74219829  0.68993291  0.37495421    -0.03600
C486        C  0.70508403  0.65734572  0.35086596    -0.08000
C487        C  0.67697073  0.60204867  0.35424570     0.05500
C488        C  0.68253776  0.58063169  0.38489253    -0.03000
Br489      Br  0.64434174  0.50721550  0.39551973    -0.02700
H490        H  0.72775069  0.59635621  0.43076240     0.09400
H491        H  0.70031182  0.67579253  0.32859674     0.07500
Br492      Br  0.78501361  0.76342999  0.36468454    -0.03200
C493        C  0.73731418  0.69721028  0.20674579    -0.09800
C494        C  0.70886201  0.65401778  0.18416100     0.06400
C495        C  0.72414844  0.66229670  0.14991156    -0.03600
C496        C  0.76697624  0.71144708  0.13971618    -0.08000
C497        C  0.79540086  0.75358313  0.16282995     0.05500
C498        C  0.77928842  0.74555304  0.19656532    -0.03000
Br499      Br  0.81837743  0.79726946  0.23107903    -0.02700
H500        H  0.72800288  0.69374072  0.23333205     0.09400
H501        H  0.78087958  0.71545408  0.11400830     0.07500
Br502      Br  0.69106939  0.60791157  0.11627161    -0.03200
C503        C  0.60562413  0.68003292  0.14092225    -0.09800
C504        C  0.60854843  0.69482320  0.17520074     0.06400
C505        C  0.65387918  0.74133436  0.18673290    -0.03600
C506        C  0.69334025  0.77270396  0.16404263    -0.08000
C507        C  0.68847086  0.75976522  0.12958030     0.05500
C508        C  0.64506903  0.71231762  0.11819471    -0.03000
Br509      Br  0.63652479  0.69337750  0.07120915    -0.02700
H510        H  0.57263557  0.64321985  0.13168097     0.09400
H511        H  0.72566168  0.81041974  0.17277639     0.07500
Br512      Br  0.66295305  0.76709875  0.23235222    -0.03200
C513        C  0.27691027  0.36028261  0.09119194    -0.09800
C514        C  0.22595187  0.32483571  0.10299759     0.06400
C515        C  0.21683105  0.31944578  0.13797814    -0.03600
C516        C  0.25789752  0.34927178  0.16061082    -0.08000
C517        C  0.30868396  0.38522298  0.14914263     0.05500
C518        C  0.31859387  0.39009091  0.11412361    -0.03000
Br519      Br  0.38857432  0.43446603  0.09668726    -0.02700
H520        H  0.28401272  0.36541818  0.06432755     0.09400
H521        H  0.24994326  0.34461686  0.18742348     0.07500
Br522      Br  0.14808978  0.27291685  0.15639054    -0.03200
C523        C  0.33939613  0.29272817  0.15499133    -0.09800
C524        C  0.39205267  0.32312342  0.14344219     0.06400
C525        C  0.40194825  0.31687285  0.10941595    -0.03600
C526        C  0.36061190  0.27796299  0.08902728    -0.08000
C527        C  0.30894080  0.24508052  0.10182424     0.05500
C528        C  0.29829568  0.25549651  0.13457921    -0.03000
Br529      Br  0.23090923  0.21163679  0.15551987    -0.02700
H530        H  0.32996601  0.29595112  0.18089634     0.09400
H531        H  0.37046061  0.26923592  0.06438767     0.07500
Br532      Br  0.47234129  0.35405557  0.09128879    -0.03200
C533        C  0.34652393  0.27916840  0.39090001    -0.09800
C534        C  0.30845009  0.22847148  0.38050356     0.06400
C535        C  0.30510894  0.21393990  0.34619267    -0.03600
C536        C  0.34207573  0.24854926  0.32333539    -0.08000
C537        C  0.38185830  0.29878525  0.33376994     0.05500
C538        C  0.38241450  0.31485327  0.36777262    -0.03000
Br539      Br  0.42869031  0.38523983  0.38439515    -0.02700
H540        H  0.34984648  0.29025635  0.41731714     0.09400
H541        H  0.33965630  0.23601213  0.29729438     0.07500
Br542      Br  0.25231393  0.14533428  0.32987882    -0.03200
C543        C  0.21723533  0.23549017  0.30891642    -0.09800
C544        C  0.20262684  0.23441695  0.34253757     0.06400
C545        C  0.23320128  0.28030515  0.36251556    -0.03600
C546        C  0.27487984  0.32635512  0.34846922    -0.08000
C547        C  0.28780200  0.32824884  0.31423843     0.05500
C548        C  0.25912420  0.28075721  0.29472722    -0.03000
Br549      Br  0.27328913  0.27183687  0.24841202    -0.02700
H550        H  0.19310251  0.20175748  0.29269609     0.09400
H551        H  0.29644970  0.36107526  0.36432664     0.07500
Br552      Br  0.21563444  0.28335874  0.40867428    -0.03200
O553        O  0.46648469  0.36897814  0.81768057    -0.75900
O554        O  0.40304486  0.32925560  0.77721790    -0.54800
C555        C  0.42077540  0.33239821  0.80736678     0.77800
O556        O  0.50672439  0.58704782  0.83691719    -0.60500
O557        O  0.57875661  0.63349798  0.80329509    -0.53600
C558        C  0.55261212  0.62800061  0.83031439     0.69800
O559        O  0.36763957  0.41394913  0.81914700    -0.75100
O560        O  0.33972259  0.37275826  0.76898803    -0.55700
C561        C  0.33474876  0.37378832  0.80070888     0.75800
O562        O  0.61368457  0.51718451  0.82864767    -0.60200
O563        O  0.63892642  0.59444407  0.80250693    -0.53300
C564        C  0.64179468  0.56780984  0.82705039     0.72400
Zr565      Zr  0.54243764  0.44609217  0.79405698     2.54700
O566        O  0.56302294  0.40858410  0.84255197    -0.80800
O567        O  0.59474875  0.40775584  0.77332375    -0.94200
Zr568      Zr  0.44268712  0.50433576  0.80474898     2.64700
O569        O  0.41976266  0.50334195  0.86406313    -0.99200
O570        O  0.38134052  0.53732487  0.79645761    -0.81200
O571        O  0.46015729  0.43862327  0.79045567    -0.84600
O572        O  0.53041797  0.51868213  0.80545355    -2.19300
O573        O  0.63292829  0.55885469  0.68103045    -0.68000
O574        O  0.65446809  0.60637648  0.72963176    -0.52500
C575        C  0.66279527  0.60171487  0.69854768     0.70800
O576        O  0.38335597  0.46247207  0.67139966    -0.60900
O577        O  0.35389873  0.38537682  0.69901412    -0.52900
C578        C  0.35160432  0.41290128  0.67484551     0.72600
O579        O  0.52487453  0.61929830  0.68671424    -0.72300
O580        O  0.59086817  0.65040295  0.72632336    -0.51000
C581        C  0.57170636  0.65339755  0.69777678     0.74000
O582        O  0.47477316  0.40023908  0.65984067    -0.67600
O583        O  0.42348069  0.34306339  0.69922790    -0.54800
C584        C  0.43346893  0.35630146  0.66843675     0.72400
Zr585      Zr  0.55026581  0.47076447  0.69410010     2.77500
O586        O  0.57318136  0.47412770  0.63464935    -0.98400
O587        O  0.59757541  0.42181949  0.69721618    -0.79200
Zr588      Zr  0.45399775  0.53242045  0.70535802     2.70100
O589        O  0.43260077  0.55851732  0.65193874    -0.80400
O590        O  0.39989900  0.56920909  0.72495922    -0.99500
Zr591      Zr  0.42121104  0.40155906  0.74038568     2.21500
Zr592      Zr  0.57363962  0.57516715  0.75939735     2.11100
O593        O  0.54053341  0.54437899  0.70388902    -2.48200
O594        O  0.46745059  0.46194625  0.70029113    -0.80200
O595        O  0.58884301  0.50370307  0.74895644    -0.72400
O596        O  0.40637557  0.47363270  0.74962141    -2.33400
O597        O  0.50759756  0.41055889  0.73939172    -2.29600
O598        O  0.48739211  0.56608992  0.76046381    -0.74200
H599        H  0.54361999  0.53272257  0.82721430     0.77800
H600        H  0.36891458  0.46332554  0.74835737     0.78900
H601        H  0.55960708  0.56648372  0.68544639     0.81100
H602        H  0.50621055  0.37769414  0.73581027     0.78700
H603        H  0.36230485  0.53123499  0.81808202     0.41800
H604        H  0.42155985  0.60736837  0.72049722     0.40700
H605        H  0.45629067  0.55558507  0.63525407     0.40400
H606        H  0.57109787  0.50438670  0.62552218     0.38400
H607        H  0.63526227  0.44901935  0.70111567     0.41500
H608        H  0.57911405  0.37266843  0.78379961     0.36300
H609        H  0.54691063  0.41650276  0.86203509     0.42400
H610        H  0.38080259  0.47976435  0.86543429     0.38800
H611        H  0.61152234  0.48552092  0.63453250     0.43700
H612        H  0.63002875  0.42868811  0.78439748     0.42400
H613        H  0.43523420  0.48436894  0.87572330     0.42600
H614        H  0.36997978  0.55618725  0.70857914     0.42900
O615        O  0.06728994  0.43015243  0.82096675    -0.75900
O616        O  0.02703202  0.37254505  0.77727798    -0.54800
C617        C  0.05145416  0.38517892  0.80580457     0.77800
O618        O  0.91903991  0.54161894  0.82197503    -0.60500
O619        O  0.97846530  0.61671433  0.79553197    -0.53600
C620        C  0.94431069  0.59202524  0.81839708     0.69800
O621        O  0.91532755  0.38922897  0.82345114    -0.75100
O622        O  0.92828657  0.34199149  0.78341303    -0.55700
C623        C  0.91965240  0.34948013  0.81406896     0.75800
O624        O  0.08937447  0.59868322  0.83654963    -0.60200
O625        O  0.09449704  0.64653442  0.79225782    -0.53300
C626        C  0.09126993  0.64023964  0.82391224     0.72400
Zr627      Zr  0.07440267  0.51667809  0.80520123     2.54700
O628        O  0.09077141  0.50942000  0.86481627    -0.80800
O629        O  0.17057325  0.55441551  0.80111547    -0.94200
Zr630      Zr  0.91626728  0.46401088  0.79530154     2.64700
O631        O  0.85781300  0.43660818  0.84418224    -0.99200
O632        O  0.82487660  0.42451524  0.77438896    -0.81200
O633        O  0.98864388  0.45240487  0.79329104    -0.84600
O634        O  0.00313592  0.53521244  0.80483346    -2.19300
O635        O  0.10460650  0.61943164  0.68006932    -0.68000
O636        O  0.08138873  0.65915610  0.72023740    -0.52500
C637        C  0.09567456  0.65619802  0.69017833     0.70800
O638        O  0.92512824  0.40295823  0.66378295    -0.60900
O639        O  0.91828658  0.34981097  0.70606475    -0.52900
C640        C  0.91933503  0.35874639  0.67459250     0.72600
O641        O  0.93273273  0.56755583  0.68284160    -0.72300
O642        O  0.98106463  0.62683135  0.72424069    -0.51000
C643        C  0.95340020  0.61419271  0.69711743     0.74000
O644        O  0.07721775  0.45877019  0.67226019    -0.67600
O645        O  0.02542851  0.38466846  0.70153899    -0.54800
C646        C  0.05411135  0.40867846  0.67617018     0.72400
Zr647      Zr  0.08720473  0.53467234  0.70436218     2.77500
O648        O  0.13255632  0.54706494  0.65049556    -0.98400
O649        O  0.17962975  0.57120803  0.72236241    -0.79200
Zr650      Zr  0.92954536  0.48037246  0.69509807     2.70100
O651        O  0.91808794  0.49083812  0.63527233    -0.80400
O652        O  0.83273300  0.43681812  0.69608002    -0.99500
Zr653      Zr  0.98460198  0.40964429  0.74470502     2.21500
Zr654      Zr  0.02159619  0.58888774  0.75614820     2.11100
O655        O  0.01570372  0.55170025  0.70176028    -2.48200
O656        O  0.00080382  0.46732034  0.70226211    -0.80200
O657        O  0.08603130  0.56596851  0.75739685    -0.72400
O658        O  0.90990802  0.42295011  0.74226702    -2.33400
O659        O  0.07467090  0.47891523  0.75130887    -2.29600
O660        O  0.93178665  0.51996584  0.74852378    -0.74200
H661        H  0.00224090  0.55030583  0.82616984     0.77800
H662        H  0.87661558  0.39055525  0.73964455     0.78900
H663        H  0.01628989  0.57203662  0.68260487     0.81100
H664        H  0.09914863  0.46615161  0.75083060     0.78700
H665        H  0.80689524  0.38765418  0.78225980     0.41800
H666        H  0.82390845  0.46010694  0.68301664     0.40700
H667        H  0.95361074  0.50294209  0.62550701     0.40400
H668        H  0.10626111  0.54285695  0.63298723     0.38400
H669        H  0.19883110  0.60650527  0.71209840     0.41500
H670        H  0.18211494  0.54967106  0.82373631     0.36300
H671        H  0.05523623  0.49284538  0.87534708     0.42400
H672        H  0.88195438  0.45204861  0.86397576     0.38800
H673        H  0.16022390  0.58473490  0.64973306     0.43700
H674        H  0.18500112  0.59283100  0.79945024     0.42400
H675        H  0.83847056  0.45627662  0.84297208     0.42600
H676        H  0.82050168  0.40519047  0.68152346     0.42900
O677        O  0.37129646  0.90330512  0.81555553    -0.75900
O678        O  0.33333932  0.93339403  0.77842946    -0.54800
C679        C  0.33396815  0.91237243  0.80644473     0.77800
O680        O  0.60737385  0.06920289  0.83282263    -0.60500
O681        O  0.64242573  0.03485224  0.79635886    -0.53600
C682        C  0.64286344  0.05660398  0.82470647     0.69800
O683        O  0.44426061  0.05552646  0.83407187    -0.75100
O684        O  0.37895871  0.03091985  0.79469487    -0.55700
C685        C  0.39723701  0.04535746  0.82483535     0.75800
O686        O  0.51947678  0.89498228  0.81046468    -0.60200
O687        O  0.58623132  0.92875659  0.77266556    -0.53300
C688        C  0.56691179  0.90800980  0.80102463     0.72400
Zr689      Zr  0.44751610  0.90657416  0.78635520     2.54700
O690        O  0.42313597  0.84909204  0.83505150    -0.80800
O691        O  0.39552275  0.81962324  0.76026843    -0.94200
Zr692      Zr  0.52455157  0.06179123  0.80811845     2.64700
O693        O  0.52606677  0.07259778  0.86928931    -0.99200
O694        O  0.56667924  0.15744126  0.80956966    -0.81200
O695        O  0.44966978  0.98517192  0.79240623    -0.84600
O696        O  0.52914501  0.98471679  0.79866992    -2.19300
O697        O  0.53836957  0.92946347  0.66434461    -0.68000
O698        O  0.60754613  0.96531760  0.70170378    -0.52500
C699        C  0.58646673  0.94315434  0.67312560     0.70800
O700        O  0.46681243  0.09154974  0.68045637    -0.60900
O701        O  0.40201541  0.06583694  0.71916967    -0.52900
C702        C  0.42082472  0.08285447  0.68991944     0.72600
O703        O  0.62677479  0.10637090  0.68734596    -0.72300
O704        O  0.65863943  0.06823058  0.72290832    -0.51000
C705        C  0.66115803  0.09271385  0.69584611     0.74000
O706        O  0.38590814  0.93456105  0.66229696    -0.67600
O707        O  0.34612525  0.96212068  0.69994916    -0.54800
C708        C  0.34910743  0.94466743  0.67049850     0.72400
Zr709      Zr  0.46434426  0.93765768  0.68793928     2.77500
O710        O  0.47129018  0.95734259  0.62793224    -0.98400
O711        O  0.41655036  0.84315636  0.67716096    -0.79200
Zr712      Zr  0.54185171  0.09293539  0.71020240     2.70100
O713        O  0.56980414  0.14615146  0.65949658    -0.80400
O714        O  0.57802182  0.18118726  0.73388076    -0.99500
Zr715      Zr  0.40797357  0.99795409  0.74794765     2.21500
Zr716      Zr  0.58081263  0.00021135  0.74892343     2.11100
O717        O  0.54548179  0.01535077  0.69895613    -2.48200
O718        O  0.46006065  0.01451648  0.69922972    -0.80200
O719        O  0.49993815  0.92015653  0.73741434    -0.72400
O720        O  0.48855303  0.07909860  0.75904137    -2.33400
O721        O  0.40905241  0.91859356  0.73629947    -2.29600
O722        O  0.57996512  0.07998907  0.76004228    -0.74200
H723        H  0.54475734  0.98048566  0.81891307     0.77800
H724        H  0.48176804  0.10787151  0.76290860     0.78900
H725        H  0.56626209  0.01991968  0.67893864     0.81100
H726        H  0.37397745  0.88978921  0.73203721     0.78700
H727        H  0.54088161  0.16470303  0.82115936     0.41800
H728        H  0.61063624  0.20311952  0.72077130     0.40700
H729        H  0.55777080  0.12020729  0.64068658     0.40400
H730        H  0.50939558  0.98230629  0.62406418     0.38400
H731        H  0.41375314  0.83965479  0.65227605     0.41500
H732        H  0.36226605  0.80204582  0.77335721     0.36300
H733        H  0.43915001  0.87316168  0.85468749     0.42400
H734        H  0.52809992  0.04232756  0.87850625     0.38800
H735        H  0.46408186  0.92437918  0.61632027     0.43700
H736        H  0.41467551  0.80079407  0.76641412     0.42400
H737        H  0.56106694  0.10373867  0.87467543     0.42600
H738        H  0.55275701  0.19254132  0.72646832     0.42900
C739        C  0.06248792  0.12566626  0.86433314     0.79600
N740        N  0.11683017  0.14945070  0.85957092    -0.78700
C741        C  0.14521620  0.20078570  0.84937700     0.82000
N742        N  0.12032896  0.22776911  0.84408046    -0.78700
C743        C  0.06822502  0.20701337  0.84830889     0.82100
N744        N  0.03856521  0.15578962  0.85883482    -0.80400
C745        C  0.10428456  0.22295103  0.56297028     0.79600
N746        N  0.15693821  0.25031731  0.57132306    -0.78700
C747        C  0.17944253  0.30146945  0.58152578     0.82000
N748        N  0.14910528  0.32421632  0.58355642    -0.78700
C749        C  0.09633398  0.29671919  0.57724641     0.82100
N750        N  0.07356238  0.24544822  0.56741065    -0.80400
C751        C  0.08551030  0.86279462  0.56420114     0.79600
N752        N  0.06108692  0.81601775  0.58117059    -0.78700
C753        C  0.09207877  0.80238695  0.59994104     0.82000
N754        N  0.14489683  0.83481538  0.60209219    -0.78700
C755        C  0.16894439  0.88153639  0.58713842     0.82100
N756        N  0.13935227  0.89600100  0.56837735    -0.80400
C757        C  0.88710489  0.09799559  0.58805603     0.79600
N758        N  0.91743396  0.15184981  0.59150113    -0.78700
C759        C  0.89301094  0.18093696  0.59716223     0.82000
N760        N  0.83987567  0.15594468  0.60010108    -0.78700
C761        C  0.81021377  0.10323955  0.60010355     0.82100
N762        N  0.83375053  0.07391852  0.59400342    -0.80400
C763        C  0.90109301  0.12624809  0.93573927     0.79600
N764        N  0.84708073  0.09679955  0.92998016    -0.78700
C765        C  0.82029688  0.11849088  0.91505328     0.82000
N766        N  0.84777308  0.16857269  0.90510885    -0.78700
C767        C  0.90102111  0.19716513  0.90831548     0.82100
N768        N  0.92856244  0.17606049  0.92325150    -0.80400
C769        C  0.21938938  0.12102849  0.93772147     0.79600
N770        N  0.23989984  0.08799714  0.93313567    -0.78700
C771        C  0.28456337  0.10329086  0.91469862     0.82000
N772        N  0.30714779  0.15032608  0.90004461    -0.78700
C773        C  0.28622447  0.18202067  0.90219530     0.82100
N774        N  0.24164004  0.16772911  0.92090130    -0.80400
C775        C  0.09190487  0.88677479  0.90998340     0.79600
N776        N  0.14507984  0.91303761  0.90296795    -0.78700
C777        C  0.17072390  0.88590969  0.89612384     0.82000
N778        N  0.14340147  0.83313124  0.89631295    -0.78700
C779        C  0.09047309  0.80567635  0.90022457     0.82100
N780        N  0.06370555  0.83254431  0.90663533    -0.80400
C781        C  0.20006931  0.10444923  0.58545617     0.79600
N782        N  0.22746329  0.08044375  0.59557374    -0.78700
C783        C  0.27972838  0.10974390  0.60385873     0.82000
N784        N  0.30440011  0.16232954  0.60192798    -0.78700
C785        C  0.27833264  0.18741663  0.59287731     0.82100
N786        N  0.22515256  0.15848862  0.58506311    -0.80400
O787        O  0.05928714  0.13060835  0.57104459    -0.87100
O788        O  0.01307434  0.03442749  0.89061958    -0.87300
O789        O  0.13869662  0.12149530  0.95738151    -0.89000
O790        O  0.97916741  0.12072439  0.95466807    -0.87700
O791        O  0.89443608  0.05972171  0.96994561    -0.87300
O792        O  0.15786851  0.05756002  0.97235527    -0.88700
O793        O  0.05456059  0.11376491  0.91968728    -0.87200
O794        O  0.08001879  0.16481494  0.51737701    -0.86700
Zr795      Zr  0.04369435  0.09230103  0.97595763     2.84300
O796        O  0.96160548  0.02413697  0.95570328    -1.08700
O797        O  0.07042424  0.06100133  0.52127160    -1.09400
C798        C  0.08007675  0.16910284  0.54979292     1.06000
C799        C  0.04065415  0.08687478  0.89255463     1.05900
C800        C  0.16934112  0.10043808  0.95757481     1.08900
C801        C  0.92757326  0.10160919  0.95467012     1.06700
H802        H  0.07676482  0.03208239  0.93568330     0.32200
O803        O  0.05240578  0.02209113  0.95433899    -1.29700
H804        H  0.97885396  0.09344453  0.52613383     0.31900
O805        O  0.98262817  0.06373631  0.52033022    -1.31300
O806        O  0.92572009  0.85935740  0.93065302    -0.87100
O807        O  0.97286957  0.95591586  0.61043166    -0.88600
O808        O  0.09264117  0.94106593  0.95430470    -0.87200
O809        O  0.83722028  0.94641801  0.95542200    -0.87200
O810        O  0.88599650  0.04271604  0.54473488    -0.87000
O811        O  0.14543101  0.04503008  0.54405369    -0.86800
O812        O  0.00507501  0.86359146  0.54471705    -0.87100
O813        O  0.85236038  0.86631441  0.54686182    -0.86600
O814        O  0.08843281  0.92483306  0.52777337    -0.87700
O815        O  0.83135164  0.92910158  0.53244593    -0.86800
O816        O  0.02837844  0.91868192  0.91333393    -0.87200
O817        O  0.10569484  0.07132321  0.58376698    -0.86900
O818        O  0.94994270  0.06612099  0.58613296    -0.86600
O819        O  0.87694864  0.92308950  0.91391991    -0.87000
O820        O  0.90534272  0.82435620  0.98418969    -0.87300
O821        O  0.93222170  0.87636567  0.58165085    -0.88600
Zr822      Zr  0.97105956  0.95534151  0.93305735     2.83100
Zr823      Zr  0.01075984  0.03350471  0.56722668     2.83500
Zr824      Zr  0.08156871  0.99293353  0.50017960     2.84100
Zr825      Zr  0.90206593  0.99446453  0.50016852     2.83400
Zr826      Zr  0.94376690  0.89619422  0.52467371     2.84200
O827        O  0.93141049  0.96459601  0.54502736    -1.09200
O828        O  0.00102360  0.92477851  0.97890736    -1.08700
C829        C  0.90529056  0.82095255  0.95177383     1.06000
C830        C  0.94632527  0.90352614  0.60874800     1.08600
C831        C  0.06892098  0.91724638  0.92653158     1.06100
C832        C  0.83605883  0.92332118  0.92727098     1.06500
C833        C  0.90904812  0.06643226  0.57262942     1.06100
C834        C  0.14660190  0.07143082  0.57051566     1.05600
C835        C  0.05653919  0.88318625  0.54376360     1.06100
C836        C  0.82210944  0.88733079  0.54797955     1.05600
H837        H  0.03805059  0.95567396  0.56465405     0.32200
O838        O  0.02393339  0.96579430  0.54614426    -1.30300
H839        H  0.87822008  0.89534197  0.97415990     0.32300
O840        O  0.91242948  0.92523287  0.98015414    -1.31700
C841        C  0.77472213  0.86675170  0.56978840     0.79600
N842        N  0.75392463  0.81956392  0.58593412    -0.78700
C843        C  0.71044135  0.80436040  0.60582686     0.82000
N844        N  0.68965385  0.83583426  0.61006410    -0.78700
C845        C  0.71078361  0.88287574  0.59557839     0.82100
N846        N  0.75371065  0.89887939  0.57554755    -0.80400
C847        C  0.78289023  0.89657539  0.91023704     0.79600
N848        N  0.75150881  0.84239619  0.90795847    -0.78700
C849        C  0.69797737  0.82035918  0.90099155     0.82000
N850        N  0.67771958  0.85235093  0.89754677    -0.78700
C851        C  0.70862886  0.90462233  0.89544069     0.82100
N852        N  0.76156892  0.92714259  0.90169436    -0.80400
C853        C  0.92849608  0.86544204  0.63743072     0.79600
N854        N  0.87443170  0.83792694  0.64377367    -0.78700
C855        C  0.85074052  0.78740258  0.65569963     0.82000
N856        N  0.87984115  0.76438182  0.66030016    -0.78700
C857        C  0.93173407  0.78877854  0.65389157     0.82100
N858        N  0.95674243  0.83949524  0.64233160    -0.80400
C859        C  0.88091725  0.76854537  0.93769379     0.79600
N860        N  0.91254866  0.75100611  0.92499868    -0.78700
C861        C  0.89009997  0.70250064  0.91085179     0.82000
N862        N  0.83684624  0.67301169  0.90810298    -0.78700
C863        C  0.80511852  0.69092029  0.91947093     0.82100
N864        N  0.82713742  0.73931681  0.93417729    -0.80400
C865        C  0.67442925  0.95237978  0.65848453    -0.09800
C866        C  0.62132392  0.93509932  0.64875892     0.06400
C867        C  0.60433245  0.91138104  0.61624830    -0.03600
C868        C  0.63891983  0.90317949  0.59584613    -0.08000
C869        C  0.68998581  0.91664359  0.60708226     0.05500
C870        C  0.70819792  0.94299791  0.63825441    -0.03000
Br871      Br  0.77624669  0.95961897  0.65662075    -0.02700
H872        H  0.68947874  0.97114297  0.68282691     0.09400
H873        H  0.62376784  0.88084340  0.57252668     0.07500
Br874      Br  0.53343948  0.88302347  0.59863244    -0.03200
C875        C  0.77257507  0.08125920  0.65549670    -0.09800
C876        C  0.76301575  0.08398345  0.62112863     0.06400
C877        C  0.72121392  0.09250504  0.61160961    -0.03600
C878        C  0.68951042  0.09733245  0.63626411    -0.08000
C879        C  0.70082907  0.09716544  0.67081109     0.05500
C880        C  0.74406836  0.09047585  0.68012315    -0.03000
Br881      Br  0.77137220  0.10064657  0.72536539    -0.02700
H882        H  0.80677174  0.07827732  0.66327650     0.09400
H883        H  0.65616480  0.10161296  0.62827085     0.07500
Br884      Br  0.70887236  0.10196151  0.56535626    -0.03200
C885        C  0.68518273  0.08556017  0.88258857    -0.09800
C886        C  0.68576725  0.06577616  0.85010449     0.06400
C887        C  0.72722637  0.05450942  0.84321282    -0.03600
C888        C  0.76615268  0.06408614  0.86770751    -0.08000
C889        C  0.76730778  0.08713259  0.89893572     0.05500
C890        C  0.72587517  0.09727655  0.90640215    -0.03000
Br891      Br  0.72589092  0.13110903  0.94797055    -0.02700
H892        H  0.65417666  0.09417169  0.88918007     0.09400
H893        H  0.79906647  0.05835252  0.86095936     0.07500
Br894      Br  0.73818705  0.03068701  0.80039680    -0.03200
C895        C  0.60366111  0.92417672  0.85915741    -0.09800
C896        C  0.60486148  0.90810223  0.82579222     0.06400
C897        C  0.64859108  0.90337142  0.81540522    -0.03600
C898        C  0.69000618  0.91499867  0.83809569    -0.08000
C899        C  0.68686138  0.92712944  0.87207094     0.05500
C900        C  0.64373161  0.93267318  0.88234034    -0.03000
Br901      Br  0.63559598  0.94601172  0.92868498    -0.02700
H902        H  0.57134322  0.92988913  0.86732629     0.09400
H903        H  0.72147219  0.90766496  0.83024674     0.07500
Br904      Br  0.65165094  0.87676069  0.77148542    -0.03200
C905        C  0.34363743  0.09408233  0.67985063    -0.09800
C906        C  0.38520852  0.08893462  0.66601886     0.06400
C907        C  0.38648081  0.08265589  0.63059159    -0.03600
C908        C  0.34781145  0.08406653  0.61009679    -0.08000
C909        C  0.30676418  0.08939985  0.62437176     0.05500
C910        C  0.30431973  0.09336201  0.65957422    -0.03000
Br911      Br  0.25005401  0.10153265  0.68152736    -0.02700
H912        H  0.34126049  0.09837680  0.70685560     0.09400
H913        H  0.35071248  0.08272856  0.58290140     0.07500
Br914      Br  0.43783100  0.07019542  0.60835014    -0.03200
C915        C  0.27352775  0.95670075  0.65043444    -0.09800
C916        C  0.30827253  0.93711446  0.64407399     0.06400
C917        C  0.30289426  0.91148486  0.61241019    -0.03600
C918        C  0.26131156  0.90223000  0.59016502    -0.08000
C919        C  0.22401199  0.91733370  0.59833835     0.05500
C920        C  0.23223378  0.94739861  0.62786026    -0.03000
Br921      Br  0.18273930  0.96953196  0.64058464    -0.02700
H922        H  0.27694252  0.97765693  0.67374741     0.09400
H923        H  0.25458906  0.87785251  0.56792468     0.07500
Br924      Br  0.34594238  0.88224935  0.59822303    -0.03200
C925        C  0.30410351  0.91518286  0.86491283    -0.09800
C926        C  0.29166402  0.90357128  0.83038804     0.06400
C927        C  0.24138600  0.89274322  0.81843228    -0.03600
C928        C  0.20616156  0.89673379  0.84022896    -0.08000
C929        C  0.21777389  0.90720597  0.87476145     0.05500
C930        C  0.26704594  0.91596518  0.88718662    -0.03000
Br931      Br  0.28445300  0.92807651  0.93429670    -0.02700
H932        H  0.34287350  0.92443141  0.87449709     0.09400
H933        H  0.16694231  0.88625701  0.83074095     0.07500
Br934      Br  0.21639573  0.86768132  0.77328824    -0.03200
C935        C  0.38127236  0.06535420  0.88419936    -0.09800
C936        C  0.36181095  0.04951910  0.85092694     0.06400
C937        C  0.30891254  0.03808896  0.84391584    -0.03600
C938        C  0.27889429  0.04475883  0.86909852    -0.08000
C939        C  0.30110889  0.06689919  0.90067600     0.05500
C940        C  0.35200094  0.07501117  0.90852466    -0.03000
Br941      Br  0.38522781  0.10492230  0.95116382    -0.02700
H942        H  0.42083003  0.07339204  0.89098012     0.09400
H943        H  0.24037433  0.03965867  0.86228984     0.07500
Br944      Br  0.27595293  0.02024416  0.79990295    -0.03200
C945        C  0.09529985  0.73845044  0.67807913    -0.09800
C946        C  0.09224974  0.69221869  0.66544162     0.06400
C947        C  0.07556056  0.67745264  0.63137962    -0.03600
C948        C  0.06653265  0.71076013  0.61058141    -0.08000
C949        C  0.07257092  0.75818642  0.62306719     0.05500
C950        C  0.08553498  0.77091050  0.65751114    -0.03000
Br951      Br  0.09971304  0.83714664  0.67654131    -0.02700
H952        H  0.10643199  0.75021575  0.70417620     0.09400
H953        H  0.05847358  0.70136794  0.58394273     0.07500
Br954      Br  0.06320416  0.61261015  0.61117745    -0.03200
C955        C  0.94405653  0.71385687  0.63772255    -0.09800
C956        C  0.95605622  0.75590571  0.66039269     0.06400
C957        C  0.96535315  0.74954997  0.69428443    -0.03600
C958        C  0.96153673  0.70260689  0.70513604    -0.08000
C959        C  0.94926965  0.65980524  0.68287190     0.05500
C960        C  0.94101640  0.66648795  0.64847977    -0.03000
Br961      Br  0.92412086  0.61254916  0.61521025    -0.02700
H962        H  0.93342816  0.71649468  0.61186541     0.09400
H963        H  0.96770369  0.69971046  0.73181601     0.07500
Br964      Br  0.97684556  0.80208900  0.72775024    -0.03200
C965        C  0.93398494  0.66863064  0.83255005    -0.09800
C966        C  0.93666349  0.62457336  0.84338548     0.06400
C967        C  0.93656653  0.61508045  0.87823344    -0.03600
C968        C  0.92738190  0.64559408  0.90126675    -0.08000
C969        C  0.92048336  0.68671489  0.89007266     0.05500
C970        C  0.92628423  0.69998069  0.85577489    -0.03000
Br971      Br  0.91874687  0.75748515  0.83949904    -0.02700
H972        H  0.93646526  0.67781379  0.80596150     0.09400
H973        H  0.92293034  0.63557133  0.92776202     0.07500
Br974      Br  0.95069453  0.56267581  0.89606998    -0.03200
C975        C  0.08169129  0.67665563  0.88040358    -0.09800
C976        C  0.08353808  0.67931702  0.84492152     0.06400
C977        C  0.07325145  0.71749032  0.82975987    -0.03600
C978        C  0.06328858  0.75132038  0.84964328    -0.08000
C979        C  0.06653842  0.75202888  0.88488313     0.05500
C980        C  0.07422812  0.71284275  0.90013620    -0.03000
Br981      Br  0.07704504  0.70897457  0.94818354    -0.02700
H982        H  0.08759209  0.64733192  0.89299136     0.09400
H983        H  0.05943319  0.78206786  0.83722499     0.07500
Br984      Br  0.07494386  0.73039040  0.78205954    -0.03200
C985        C  0.91595988  0.27249235  0.66755935    -0.09800
C986        C  0.91796965  0.31646302  0.65173602     0.06400
C987        C  0.92249502  0.31881863  0.61608354    -0.03600
C988        C  0.92190436  0.27688424  0.59768128    -0.08000
C989        C  0.91916646  0.23310831  0.61406851     0.05500
C990        C  0.91771717  0.23244600  0.64947395    -0.03000
Br991      Br  0.91182903  0.17383645  0.67453753    -0.02700
H992        H  0.91300221  0.26851508  0.69469746     0.09400
H993        H  0.92025200  0.27693182  0.57038160     0.07500
Br994      Br  0.92577343  0.37564942  0.59072057    -0.03200
C995        C  0.06983495  0.39609528  0.61579771    -0.09800
C996        C  0.05798355  0.37605229  0.64877509     0.06400
C997        C  0.04634464  0.32372802  0.65413328    -0.03600
C998        C  0.04851640  0.29389565  0.62734799    -0.08000
C999        C  0.06572946  0.31590147  0.59553566     0.05500
C1000       C  0.07404840  0.36649003  0.58938651    -0.03000
Br1001     Br  0.09326191  0.39674068  0.54546521    -0.02700
H1002       H  0.07680158  0.43520910  0.61057495     0.09400
H1003       H  0.04265628  0.25511574  0.63245998     0.07500
Br1004     Br  0.03245669  0.29116336  0.69758617    -0.03200
C1005       C  0.04891885  0.32588375  0.85414074    -0.09800
C1006       C  0.06000422  0.34289054  0.82049243     0.06400
C1007       C  0.07215659  0.31309973  0.79821368    -0.03600
C1008       C  0.06081678  0.26233420  0.80633622    -0.08000
C1009       C  0.04931507  0.24408303  0.83962803     0.05500
C1010       C  0.04787983  0.27893958  0.86414344    -0.03000
Br1011     Br  0.05299215  0.26817382  0.91133666    -0.02700
H1012       H  0.04299956  0.34968490  0.87269224     0.09400
H1013       H  0.07082690  0.24103742  0.78805649     0.07500
Br1014     Br  0.12070893  0.34771895  0.76218816    -0.03200
C1015       C  0.92770898  0.28912567  0.89781833    -0.09800
C1016       C  0.92519758  0.24273620  0.88636894     0.06400
C1017       C  0.92233884  0.23255296  0.85143612    -0.03600
C1018       C  0.92027661  0.26747738  0.82871878    -0.08000
C1019       C  0.91984606  0.31290270  0.83992221     0.05500
C1020       C  0.92500547  0.32417230  0.87515530    -0.03000
Br1021     Br  0.92636789  0.38474534  0.89509179    -0.02700
H1022       H  0.92735858  0.29597936  0.92469761     0.09400
H1023       H  0.91733600  0.25786534  0.80207719     0.07500
Br1024     Br  0.91342159  0.16733584  0.83375417    -0.03200
C1025       C  0.60364141  0.67190603  0.88448345    -0.09800
C1026       C  0.57997183  0.67414509  0.85365615     0.06400
C1027       C  0.59684382  0.72376551  0.83972200    -0.03600
C1028       C  0.63952664  0.76858258  0.85385604    -0.08000
C1029       C  0.66345689  0.76757803  0.88470675     0.05500
C1030       C  0.64360996  0.71861875  0.90072518    -0.03000
Br1031     Br  0.66893164  0.71484377  0.94469759    -0.02700
H1032       H  0.59204913  0.63405294  0.89548433     0.09400
H1033       H  0.65229636  0.80553166  0.84123728     0.07500
Br1034     Br  0.56175810  0.73223744  0.80102177    -0.00700
C1035       C  0.72019557  0.61034045  0.91039828    -0.09800
C1036       C  0.75144140  0.66462785  0.90531987     0.06400
C1037       C  0.74149921  0.68703635  0.87704513    -0.03600
C1038       C  0.70421039  0.65464448  0.85302959    -0.08000
C1039       C  0.67707934  0.59929443  0.85572659     0.05500
C1040       C  0.68345258  0.57740755  0.88591808    -0.03000
Br1041     Br  0.64765084  0.50350424  0.89507697    -0.02700
H1042       H  0.72849220  0.59283750  0.93187229     0.09400
H1043       H  0.69911376  0.67340759  0.83104243     0.07500
Br1044     Br  0.78494624  0.76011799  0.86597508    -0.03200
C1045       C  0.73748048  0.69445049  0.70680627    -0.09800
C1046       C  0.70843545  0.65165682  0.68403979     0.06400
C1047       C  0.72162838  0.66134928  0.64945772    -0.03600
C1048       C  0.76412830  0.71070685  0.63928529    -0.08000
C1049       C  0.79369118  0.75215158  0.66258335     0.05500
C1050       C  0.77868008  0.74336280  0.69652792    -0.03000
Br1051     Br  0.81794400  0.79523479  0.73089368    -0.02700
H1052       H  0.72911352  0.69025040  0.73352793     0.09400
H1053       H  0.77657353  0.71560013  0.61320793     0.07500
Br1054     Br  0.68531784  0.60931743  0.61485419    -0.03200
C1055       C  0.60540677  0.67890435  0.63942008    -0.09800
C1056       C  0.60955995  0.69274197  0.67396713     0.06400
C1057       C  0.65509662  0.73921956  0.68535802    -0.03600
C1058       C  0.69359992  0.77136364  0.66236985    -0.08000
C1059       C  0.68786863  0.75901410  0.62779666     0.05500
C1060       C  0.64400784  0.71185890  0.61642046    -0.03000
Br1061     Br  0.63379317  0.69398607  0.56924507    -0.02700
H1062       H  0.57214239  0.64228261  0.63018963     0.09400
H1063       H  0.72610606  0.80895245  0.67112755     0.07500
Br1064     Br  0.66576626  0.76376278  0.73135845    -0.03200
C1065       C  0.27660946  0.36032466  0.59178672    -0.09800
C1066       C  0.22599828  0.32456402  0.60383571     0.06400
C1067       C  0.21721157  0.31918911  0.63885456    -0.03600
C1068       C  0.25858560  0.34886661  0.66130179    -0.08000
C1069       C  0.30918093  0.38490366  0.64960384     0.05500
C1070       C  0.31847592  0.39036310  0.61449469    -0.03000
Br1071     Br  0.38756097  0.43629208  0.59636449    -0.02700
H1072       H  0.28322111  0.36569422  0.56488713     0.09400
H1073       H  0.25102062  0.34407088  0.68815592     0.07500
Br1074     Br  0.14850713  0.27304782  0.65758133    -0.03200
C1075       C  0.33887356  0.29102758  0.65590293    -0.09800
C1076       C  0.39108137  0.32105155  0.64359042     0.06400
C1077       C  0.39943761  0.31520931  0.60917421    -0.03600
C1078       C  0.35731199  0.27626926  0.58932361    -0.08000
C1079       C  0.30632051  0.24345868  0.60297187     0.05500
C1080       C  0.29687472  0.25425048  0.63591785    -0.03000
Br1081     Br  0.23001221  0.21138479  0.65767703    -0.02700
H1082       H  0.33045677  0.29430616  0.68202610     0.09400
H1083       H  0.36600260  0.26757053  0.56432573     0.07500
Br1084     Br  0.46841251  0.35379360  0.58927110    -0.03200
C1085       C  0.34586055  0.27486210  0.88880053    -0.09800
C1086       C  0.30779843  0.22447607  0.87783207     0.06400
C1087       C  0.30655179  0.21027565  0.84359313    -0.03600
C1088       C  0.34531676  0.24473180  0.82155779    -0.08000
C1089       C  0.38447328  0.29488444  0.83249242     0.05500
C1090       C  0.38337217  0.31055695  0.86635614    -0.03000
Br1091     Br  0.42958486  0.38043144  0.88363613    -0.02700
H1092       H  0.34785838  0.28568503  0.91518694     0.09400
H1093       H  0.34433413  0.23241320  0.79560823     0.07500
Br1094     Br  0.25350480  0.14264018  0.82608918    -0.03200
C1095       C  0.21835458  0.23240927  0.81023195    -0.09800
C1096       C  0.20281380  0.23207629  0.84347966     0.06400
C1097       C  0.23326758  0.27789017  0.86350536    -0.03600
C1098       C  0.27606397  0.32343917  0.84968177    -0.08000
C1099       C  0.29006350  0.32458642  0.81566888     0.05500
C1100       C  0.26145439  0.27688430  0.79635575    -0.03000
Br1101     Br  0.27730975  0.26639039  0.75075472    -0.02700
H1102       H  0.19429574  0.19862934  0.79403188     0.09400
H1103       H  0.29746781  0.35833558  0.86541492     0.07500
Br1104     Br  0.21363862  0.28122294  0.90918867    -0.03200
loop_ 
_geom_bond_atom_site_label_1 
_geom_bond_atom_site_label_2 
_geom_bond_distance 
_geom_bond_site_symmetry_2 
_ccdc_geom_bond_type 
O1          Zr13   2.434       .  S
O1            C3   1.282       .  A
O2          Zr39   2.419       .  S
O2            C3   1.283       .  A
C3          C537   1.477       .  S
O4          Zr16   2.531       .  S
O4            C6   1.302       .  A
O5          Zr40   2.369       .  S
O5            C6   1.277       .  A
C6          C474   1.485       .  S
O7          Zr16   2.517       .  S
O7            C9   1.300       .  A
O8          Zr39   2.377       .  S
O8            C9   1.268       .  A
C9          C547   1.505       .  S
O10         Zr13   2.465       .  S
O10          C12   1.289       .  A
O11         Zr40   2.391       .  S
O11          C12   1.280       .  A
C12         C487   1.488       .  S
Zr13         O14   2.439       .  S
Zr13         O15   2.440       .  S
Zr13         O19   2.291       .  S
Zr13         O20   2.369       .  S
Zr13         O43   2.377       .  S
Zr13         O45   2.384       .  S
O14          H57   0.990       .  S
O15          H56   0.990       .  S
O15          H60   0.990       .  S
Zr16         O17   2.443       .  S
Zr16         O18   2.439       .  S
Zr16         O19   2.297       .  S
Zr16         O20   2.367       .  S
Zr16         O44   2.385       .  S
Zr16         O46   2.399       .  S
O17          H58   0.990       .  S
O17          H61   0.990       .  S
O18          H51   0.990       .  S
O19         Zr39   2.260       .  S
O20         Zr40   2.375       .  S
O20          H47   0.950       .  S
O21         Zr33   2.557       .  S
O21          C23   1.306       .  A
O22         Zr40   2.359       .  S
O22          C23   1.274       .  A
C23         C494   1.517       .  S
O24         Zr36   2.445       .  S
O24          C26   1.285       .  A
O25         Zr39   2.394       .  S
O25          C26   1.279       .  A
C26         C517   1.469       .  S
O27         Zr36   2.460       .  S
O27          C29   1.291       .  A
O28         Zr40   2.402       .  S
O28          C29   1.280       .  A
C29         C504   1.477       .  S
O30         Zr33   2.514       .  S
O30          C32   1.298       .  A
O31         Zr39   2.383       .  S
O31          C32   1.274       .  A
C32         C524   1.502       .  S
Zr33         O34   2.441       .  S
Zr33         O35   2.437       .  S
Zr33         O42   2.303       .  S
Zr33         O41   2.346       .  S
Zr33         O45   2.401       .  S
Zr33         O43   2.397       .  S
O34          H54   0.991       .  S
O34          H59   0.989       .  S
O35          H55   0.990       .  S
Zr36         O37   2.438       .  S
Zr36         O38   2.436       .  S
Zr36         O42   2.294       .  S
Zr36         O41   2.362       .  S
Zr36         O46   2.384       .  S
Zr36         O44   2.370       .  S
O37          H53   0.990       .  S
O38          H52   0.990       .  S
O38          H62   0.991       .  S
Zr39         O42   2.272       .  S
Zr39         O44   2.385       .  S
Zr39         O45   2.388       .  S
Zr40         O41   2.379       .  S
Zr40         O43   2.376       .  S
Zr40         O46   2.383       .  S
O41          H49   0.956       .  S
O44          H48   0.974       .  S
O45          H50   0.955       .  S
O63         Zr75   2.518       .  S
O63          C65   1.299       .  A
O64        Zr101   2.387   1_455  S
O64          C65   1.281       .  A
C65         C454   1.496       .  S
O66         Zr78   2.468       .  S
O66          C68   1.290       .  A
O67        Zr102   2.385   1_655  S
O67          C68   1.277       .  A
C68         C414   1.464       .  S
O69         Zr78   2.452       .  S
O69          C71   1.285       .  A
O70        Zr101   2.416       .  S
O70          C71   1.284       .  A
C71         C467   1.492       .  S
O72         Zr75   2.536       .  S
O72          C74   1.298       .  A
O73        Zr102   2.393       .  S
O73          C74   1.267       .  A
C74         C424   1.517       .  S
Zr75         O76   2.438       .  S
Zr75         O77   2.442       .  S
Zr75         O81   2.295   1_455  S
Zr75        O105   2.310       .  S
Zr75         O82   2.385       .  S
Zr75        O107   2.402       .  S
O76         H119   0.990       .  S
O77         H118   0.991       .  S
O77         H122   0.989       .  S
Zr78         O79   2.445       .  S
Zr78         O80   2.441       .  S
Zr78         O81   2.291       .  S
Zr78         O82   2.360   1_655  S
Zr78        O106   2.377       .  S
Zr78        O108   2.379       .  S
O79         H120   0.993       .  S
O79         H123   0.987       .  S
O80         H113   0.990       .  S
O81        Zr101   2.263       .  S
O82        Zr102   2.386       .  S
O82         H109   0.958       .  S
O83         Zr95   2.475       .  S
O83          C85   1.290       .  A
O84        Zr102   2.405       .  S
O84          C85   1.281       .  A
C85         C394   1.483       .  S
O86         Zr98   2.515       .  S
O86          C88   1.296       .  A
O87        Zr101   2.394       .  S
O87          C88   1.277       .  A
C88         C434   1.513       .  S
O89         Zr98   2.569       .  S
O89          C91   1.311       .  A
O90        Zr102   2.342   1_655  S
O90          C91   1.273       .  A
C91         C407   1.515       .  S
O92         Zr95   2.445       .  S
O92          C94   1.286       .  A
O93        Zr101   2.403   1_455  S
O93          C94   1.280       .  A
C94         C444   1.486       .  S
Zr95         O96   2.446       .  S
Zr95         O97   2.441       .  S
Zr95        O104   2.288       .  S
Zr95        O105   2.294       .  S
Zr95        O103   2.373       .  S
Zr95        O107   2.388       .  S
O96         H116   0.990       .  S
O96         H121   0.990       .  S
O97         H117   0.990       .  S
Zr98         O99   2.437       .  S
Zr98        O100   2.438       .  S
Zr98        O104   2.306   1_655  S
Zr98        O103   2.336   1_655  S
Zr98        O108   2.389       .  S
Zr98        O106   2.402       .  S
O99         H115   0.989       .  S
O100        H114   0.991       .  S
O100        H124   0.989       .  S
Zr101       O104   2.273   1_655  S
Zr101       O106   2.390       .  S
Zr101       O107   2.390   1_655  S
Zr102       O105   2.282       .  S
Zr102       O103   2.375       .  S
Zr102       O108   2.386   1_455  S
O103        H111   0.965       .  S
O106        H110   0.962       .  S
O107        H112   0.955       .  S
O125       Zr137   2.460       .  S
O125        C127   1.289       .  A
O126       Zr163   2.389   1_565  S
O126        C127   1.279       .  A
C127        C374   1.475       .  S
O128       Zr140   2.499       .  S
O128        C130   1.298       .  A
O129       Zr164   2.427       .  S
O129        C130   1.285       .  A
C130        C334   1.511       .  S
O131       Zr140   2.471       .  S
O131        C133   1.292       .  A
O132       Zr163   2.429       .  S
O132        C133   1.285       .  A
C133        C384   1.510       .  S
O134       Zr137   2.473       .  S
O134        C136   1.291       .  A
O135       Zr164   2.385   1_565  S
O135        C136   1.274       .  A
C136        C344   1.477       .  S
Zr137       O138   2.440       .  S
Zr137       O139   2.440       .  S
Zr137       O143   2.293       .  S
Zr137       O144   2.378       .  S
Zr137       O167   2.382       .  S
Zr137       O169   2.389       .  S
O138        H181   0.990       .  S
O139        H180   0.989       .  S
O139        H184   0.991       .  S
Zr140       O141   2.443       .  S
Zr140       O142   2.436       .  S
Zr140       O143   2.294   1_545  S
Zr140       O144   2.359   1_545  S
Zr140       O168   2.382       .  S
Zr140       O170   2.385       .  S
O141        H182   0.992       .  S
O141        H185   0.989       .  S
O142        H175   0.990       .  S
O143       Zr163   2.273   1_565  S
O144       Zr164   2.391   1_565  S
O144        H171   0.959       .  S
O145       Zr157   2.472       .  S
O145        C147   1.291       .  A
O146       Zr164   2.436   1_565  S
O146        C147   1.290       .  A
C147        C314   1.506       .  S
O148       Zr160   2.453       .  S
O148        C150   1.286       .  A
O149       Zr163   2.386       .  S
O149        C150   1.278       .  A
C150        C354   1.476       .  S
O151       Zr160   2.477       .  S
O151        C153   1.293       .  A
O152       Zr164   2.390       .  S
O152        C153   1.278       .  A
C153        C327   1.480       .  S
O154       Zr157   2.451       .  S
O154        C156   1.286       .  A
O155       Zr163   2.447   1_565  S
O155        C156   1.290       .  A
C156        C364   1.508       .  S
Zr157       O158   2.437       .  S
Zr157       O159   2.437       .  S
Zr157       O166   2.280   1_565  S
Zr157       O165   2.348   1_565  S
Zr157       O169   2.386       .  S
Zr157       O167   2.384       .  S
O158        H178   0.989       .  S
O158        H183   0.990       .  S
O159        H179   0.990       .  S
Zr160       O161   2.439       .  S
Zr160       O162   2.438       .  S
Zr160       O166   2.289       .  S
Zr160       O165   2.370       .  S
Zr160       O170   2.384       .  S
Zr160       O168   2.391       .  S
O161        H177   0.990       .  S
O162        H176   0.991       .  S
O162        H186   0.989       .  S
Zr163       O166   2.265       .  S
Zr163       O168   2.392       .  S
Zr163       O169   2.388   1_545  S
Zr164       O165   2.377       .  S
Zr164       O167   2.389   1_545  S
Zr164       O170   2.394       .  S
O165        H173   0.967       .  S
O168        H172   0.968       .  S
O169        H174   0.958       .  S
C187        C247   1.505       .  S
C187        N188   1.386       .  A
C187        N192   1.389       .  A
N188        C189   1.373       .  A
C189        C544   1.473       .  S
C189        N190   1.327       .  A
N190        C191   1.329       .  A
C191        C457   1.483       .  S
C191        N192   1.376       .  A
C193        C246   1.467       .  S
C193        N194   1.362       .  A
C193        N198   1.362       .  A
N194        C195   1.361       .  A
C195        C514   1.463       .  S
C195        N196   1.349       .  A
N196        C197   1.349       .  A
C197        C447   1.465       .  S
C197        N198   1.361       .  A
C199        C283   1.490       .  S
C199        N200   1.371       .  A
C199        N204   1.375       .  A
N200        C201   1.371       .  A
C201        C397   1.460       .  S
C201        N202   1.344       .  A
N202        C203   1.335       .  A
C203        C367   1.471       .  S
C203        N204   1.354       .  A
C205        C281   1.497       .  S
C205        N206   1.378       .  A
C205        N210   1.368       .  A
N206        C207   1.375       .  A
C207        C437   1.480       .  S
C207        N208   1.342       .  A
N208        C209   1.342       .  A
C209        C324   1.465       .  S
C209        N210   1.363       .  A
C211        C249   1.495       .  S
C211        N212   1.377       .  A
C211        N216   1.365       .  A
N212        C213   1.363       .  A
C213        C337   1.480       .  S
C213        N214   1.339       .  A
N214        C215   1.345       .  A
C215        C464   1.456       .  S
C215        N216   1.367       .  A
C217        C248   1.493       .  S
C217        N218   1.379       .  A
C217        N222   1.366       .  A
N218        C219   1.360       .  A
C219        C387   1.480       .  S
C219        N220   1.338       .  A
N220        C221   1.346       .  A
C221        C534   1.455       .  S
C221        N222   1.367       .  A
C223        C279   1.503       .  S
C223        N224   1.368       .  A
C223        N228   1.382       .  A
N224        C225   1.361       .  A
C225        C377   1.463       .  S
C225        N226   1.341       .  A
N226        C227   1.342       .  A
C227        C427   1.486       .  S
C227        N228   1.378       .  A
C229        C282   1.481       .  S
C229        N230   1.361       .  A
C229        N234   1.377       .  A
N230        C231   1.355       .  A
C231        C357   1.451       .  S
C231        N232   1.341       .  A
N232        C233   1.343       .  A
C233        C527   1.479       .  S
C233        N234   1.374       .  A
O235       Zr271   2.476       .  S
O235        C246   1.301       .  A
O236       Zr270   2.641   1_445  S
O236        C247   1.335       .  A
O237       Zr243   2.554       .  S
O237        C248   1.312       .  A
O238       Zr243   2.548   1_655  S
O238        C249   1.311       .  A
O239       Zr825   2.371   1_545  S
O239        C249   1.278       .  A
O240       Zr824   2.367   1_545  S
O240        C248   1.278       .  A
O241       Zr243   2.309       .  S
O241        C247   1.268       .  A
O242       Zr795   2.431   1_554  S
O242        C246   1.291       .  A
Zr243       O794   2.428       .  S
Zr243       O244   2.346   1_455  S
Zr243       O251   2.355       .  S
Zr243       O797   2.331       .  S
Zr243       O805   2.338   1_455  S
O244       Zr270   2.341   1_545  S
O244       Zr825   2.335   1_545  S
O245       Zr271   2.372       .  S
O245       Zr272   2.327   1_544  S
O245       Zr795   2.325   1_554  S
H250        O251   0.967       .  S
O251       Zr270   2.332   1_445  S
O251       Zr824   2.340   1_545  S
H252        O253   0.960       .  S
O253       Zr271   2.374   1_655  S
O253       Zr273   2.332   1_545  S
O253       Zr795   2.338   1_654  S
O254       Zr270   2.438       .  S
O254        C277   1.293       .  A
O255       Zr271   2.627   1_665  S
O255        C278   1.332       .  A
O256       Zr824   2.443       .  S
O256        C279   1.292       .  A
O257       Zr825   2.441       .  S
O257        C280   1.292       .  A
O258       Zr273   2.449   1_545  S
O258        C281   1.293       .  A
O259       Zr272   2.433   1_544  S
O259        C282   1.291       .  A
O260       Zr274   2.535   1_455  S
O260        C283   1.307       .  A
O261       Zr274   2.518       .  S
O261        C284   1.304       .  A
O262       Zr272   2.373   1_554  S
O262        C283   1.279       .  A
O263       Zr273   2.385       .  S
O263        C284   1.281       .  A
O264       Zr270   2.523   1_455  S
O264        C279   1.307       .  A
O265       Zr271   2.491       .  S
O265        C282   1.302       .  A
O266       Zr271   2.514   1_655  S
O266        C281   1.306       .  A
O267       Zr270   2.514       .  S
O267        C280   1.306       .  A
O268       Zr826   2.419       .  S
O268        C277   1.289       .  A
O269       Zr274   2.319       .  S
O269        C278   1.270       .  A
Zr270       O276   2.378   1_655  S
Zr270       O288   2.388       .  S
Zr271       O275   2.340   1_445  S
Zr271       O286   2.355   1_545  S
Zr272       O792   2.363   1_565  S
Zr272       O808   2.455       .  S
Zr272       O286   2.342   1_556  S
Zr272       O803   2.334   1_565  S
Zr272       O828   2.313       .  S
Zr273       O791   2.376   1_564  S
Zr273       O809   2.442   1_554  S
Zr273       O275   2.329       .  S
Zr273       O796   2.337   1_564  S
Zr273       O840   2.333   1_554  S
Zr274       O820   2.416   1_554  S
Zr274       O275   2.348       .  S
Zr274       O286   2.348   1_655  S
Zr274       O828   2.341   1_654  S
Zr274       O840   2.346   1_554  S
O276       Zr824   2.311       .  S
O276       Zr826   2.337   1_455  S
C277        C307   1.439       .  S
C278        C301   1.500       .  S
C280        C295   1.491       .  S
C284        C289   1.487       .  S
H285        O286   0.958       .  S
H287        O288   0.968       .  S
O288       Zr825   2.327       .  S
O288       Zr826   2.345       .  S
C289        N290   1.368       .  A
C289        N294   1.375       .  A
N290        C291   1.366       .  A
C291        C507   1.452       .  S
C291        N292   1.343       .  A
N292        C293   1.334       .  A
C293        C317   1.471       .  S
C293        N294   1.357       .  A
C295        N296   1.384       .  A
C295        N300   1.365       .  A
N296        C297   1.378       .  A
C297        C477   1.496       .  S
C297        N298   1.339       .  A
N298        C299   1.336       .  A
C299        C347   1.454       .  S
C299        N300   1.356       .  A
C301        N302   1.384       .  A
C301        N306   1.384       .  A
N302        C303   1.373       .  A
C303        C497   1.475       .  S
C303        N304   1.332       .  A
N304        C305   1.332       .  A
C305        C404   1.474       .  S
C305        N306   1.372       .  A
C307        N308   1.357       .  A
C307        N312   1.359       .  A
N308        C309   1.351       .  A
C309        C417   1.447       .  S
C309        N310   1.346       .  A
N310        C311   1.347       .  A
C311        C484   1.454       .  S
C311        N312   1.355       .  A
C313        C314   1.412       .  A
C313        C318   1.400       .  A
C313        H320   1.083       .  S
C314        C315   1.423       .  A
C315        C316   1.404       .  A
C315       Br322   1.919       .  S
C316        C317   1.401       .  A
C316        H321   1.084       .  S
C317        C318   1.405       .  A
C318       Br319   1.919       .  S
C323        C324   1.402       .  A
C323        C328   1.395       .  A
C323        H330   1.081       .  S
C324        C325   1.406       .  A
C325        C326   1.403       .  A
C325       Br332   1.915       .  S
C326        C327   1.408       .  A
C326        H331   1.083       .  S
C327        C328   1.410       .  A
C328       Br329   1.920       .  S
C333        C334   1.412       .  A
C333        C338   1.408       .  A
C333        H340   1.083       .  S
C334        C335   1.425       .  A
C335        C336   1.403       .  A
C335       Br342   1.921       .  S
C336        C337   1.399       .  A
C336        H341   1.084       .  S
C337        C338   1.410       .  A
C338       Br339   1.917       .  S
C343        C344   1.407       .  A
C343        C348   1.398       .  A
C343        H350   1.083       .  S
C344        C345   1.411       .  A
C345        C346   1.396       .  A
C345       Br352   1.924       .  S
C346        C347   1.405       .  A
C346        H351   1.085       .  S
C347        C348   1.405       .  A
C348       Br349   1.917       .  S
C353        C354   1.403       .  A
C353        C358   1.385       .  A
C353        H360   1.083       .  S
C354        C355   1.418       .  A
C355        C356   1.400       .  A
C355       Br362   1.920       .  S
C356        C357   1.399       .  A
C356        H361   1.084       .  S
C357        C358   1.405       .  A
C358       Br359   1.919       .  S
C363        C364   1.412       .  A
C363        C368   1.405       .  A
C363        H370   1.082       .  S
C364        C365   1.425       .  A
C365        C366   1.401       .  A
C365       Br372   1.920       .  S
C366        C367   1.397       .  A
C366        H371   1.084       .  S
C367        C368   1.405       .  A
C368       Br369   1.918       .  S
C373        C374   1.409       .  A
C373        C378   1.404       .  A
C373        H380   1.083       .  S
C374        C375   1.409       .  A
C375        C376   1.391       .  A
C375       Br382   1.924       .  S
C376        C377   1.403       .  A
C376        H381   1.085       .  S
C377        C378   1.406       .  A
C378       Br379   1.915       .  S
C383        C384   1.414       .  A
C383        C388   1.407       .  A
C383        H390   1.083       .  S
C384        C385   1.423       .  A
C385        C386   1.404       .  A
C385       Br392   1.924       .  S
C386        C387   1.402       .  A
C386        H391   1.084       .  S
C387        C388   1.406       .  A
C388       Br389   1.916       .  S
C393        C394   1.401       .  A
C393        C398   1.388       .  A
C393        H400   1.083       .  S
C394        C395   1.422       .  A
C395        C396   1.404       .  A
C395       Br402   1.920       .  S
C396        C397   1.399       .  A
C396        H401   1.084       .  S
C397        C398   1.410       .  A
C398       Br399   1.920       .  S
C403        C404   1.414       .  A
C403        C408   1.416       .  A
C403        H410   1.084       .  S
C404        C405   1.401       .  A
C405        C406   1.396       .  A
C405       Br412   1.923       .  S
C406        C407   1.421       .  A
C406        H411   1.083       .  S
C407        C408   1.413       .  A
C408       Br409   1.914       .  S
C413        C414   1.403       .  A
C413        C418   1.392       .  A
C413        H420   1.084       .  S
C414        C415   1.411       .  A
C415        C416   1.394       .  A
C415       Br422   1.920       .  S
C416        C417   1.396       .  A
C416        H421   1.084       .  S
C417        C418   1.405       .  A
C418       Br419   1.921       .  S
C423        C424   1.409       .  A
C423        C428   1.416       .  A
C423        H430   1.083       .  S
C424        C425   1.432       .  A
C425        C426   1.402       .  A
C425       Br432   1.929       .  S
C426        C427   1.398       .  A
C426        H431   1.085       .  S
C427        C428   1.415       .  A
C428       Br429   1.913       .  S
C433        C434   1.412       .  A
C433        C438   1.394       .  A
C433        H440   1.082       .  S
C434        C435   1.420       .  A
C435        C436   1.419       .  A
C435       Br442   1.917       .  S
C436        C437   1.412       .  A
C436        H441   1.083       .  S
C437        C438   1.405       .  A
C438       Br439   1.924       .  S
C443        C444   1.410       .  A
C443        C448   1.402       .  A
C443        H450   1.083       .  S
C444        C445   1.413       .  A
C445        C446   1.392       .  A
C445       Br452   1.917       .  S
C446        C447   1.397       .  A
C446        H451   1.084       .  S
C447        C448   1.406       .  A
C448       Br449   1.915       .  S
C453        C454   1.408       .  A
C453        C458   1.420       .  A
C453        H460   1.082       .  S
C454        C455   1.402       .  A
C455        C456   1.395       .  A
C455       Br462   1.917       .  S
C456        C457   1.408       .  A
C456        H461   1.085       .  S
C457        C458   1.420       .  A
C458       Br459   1.916       .  S
C463        C464   1.397       .  A
C463        C468   1.402       .  A
C463        H470   1.084       .  S
C464        C465   1.407       .  A
C465        C466   1.393       .  A
C465       Br472   1.924       .  S
C466        C467   1.407       .  A
C466        H471   1.083       .  S
C467        C468   1.424       .  A
C468       Br469   1.922       .  S
C473        C474   1.417       .  A
C473        C478   1.423       .  A
C473        H480   1.083       .  S
C474        C475   1.402       .  A
C475        C476   1.389       .  A
C475       Br482   1.924       .  S
C476        C477   1.413       .  A
C476        H481   1.084       .  S
C477        C478   1.408       .  A
C478       Br479   1.914       .  S
C483        C484   1.398       .  A
C483        C488   1.397       .  A
C483        H490   1.084       .  S
C484        C485   1.403       .  A
C485        C486   1.390       .  A
C485       Br492   1.923       .  S
C486        C487   1.413       .  A
C486        H491   1.083       .  S
C487        C488   1.417       .  A
C488       Br489   1.917       .  S
C493        C494   1.420       .  A
C493        C498   1.394       .  A
C493        H500   1.082       .  S
C494        C495   1.415       .  A
C495        C496   1.417       .  A
C495       Br502   1.915       .  S
C496        C497   1.415       .  A
C496        H501   1.083       .  S
C497        C498   1.401       .  A
C498       Br499   1.921       .  S
C503        C504   1.412       .  A
C503        C508   1.400       .  A
C503        H510   1.083       .  S
C504        C505   1.411       .  A
C505        C506   1.392       .  A
C505       Br512   1.920       .  S
C506        C507   1.402       .  A
C506        H511   1.085       .  S
C507        C508   1.400       .  A
C508       Br509   1.919       .  S
C513        C514   1.402       .  A
C513        C518   1.405       .  A
C513        H520   1.083       .  S
C514        C515   1.408       .  A
C515        C516   1.388       .  A
C515       Br522   1.919       .  S
C516        C517   1.397       .  A
C516        H521   1.084       .  S
C517        C518   1.413       .  A
C518       Br519   1.919       .  S
C523        C524   1.411       .  A
C523        C528   1.394       .  A
C523        H530   1.080       .  S
C524        C525   1.410       .  A
C525        C526   1.415       .  A
C525       Br532   1.918       .  S
C526        C527   1.416       .  A
C526        H531   1.083       .  S
C527        C528   1.403       .  A
C528       Br529   1.920       .  S
C533        C534   1.395       .  A
C533        C538   1.398       .  A
C533        H540   1.084       .  S
C534        C535   1.410       .  A
C535        C536   1.392       .  A
C535       Br542   1.924       .  S
C536        C537   1.400       .  A
C536        H541   1.083       .  S
C537        C538   1.422       .  A
C538       Br539   1.923       .  S
C543        C544   1.397       .  A
C543        C548   1.401       .  A
C543        H550   1.084       .  S
C544        C545   1.417       .  A
C545        C546   1.408       .  A
C545       Br552   1.915       .  S
C546        C547   1.404       .  A
C546        H551   1.083       .  S
C547        C548   1.431       .  A
C548       Br549   1.928       .  S
O553       Zr565   2.433       .  S
O553        C555   1.282       .  A
O554       Zr591   2.418       .  S
O554        C555   1.283       .  A
C555       C1089   1.477       .  S
O556       Zr568   2.527       .  S
O556        C558   1.302       .  A
O557       Zr592   2.382       .  S
O557        C558   1.280       .  A
C558       C1026   1.489       .  S
O559       Zr568   2.522       .  S
O559        C561   1.299       .  A
O560       Zr591   2.375       .  S
O560        C561   1.268       .  A
C561       C1099   1.505       .  S
O562       Zr565   2.474       .  S
O562        C564   1.291       .  A
O563       Zr592   2.390       .  S
O563        C564   1.281       .  A
C564       C1039   1.490       .  S
Zr565       O566   2.438       .  S
Zr565       O567   2.441       .  S
Zr565       O571   2.291       .  S
Zr565       O572   2.365       .  S
Zr565       O595   2.380       .  S
Zr565       O597   2.386       .  S
O566        H609   0.989       .  S
O567        H608   0.990       .  S
O567        H612   0.990       .  S
Zr568       O569   2.443       .  S
Zr568       O570   2.438       .  S
Zr568       O571   2.294       .  S
Zr568       O572   2.365       .  S
Zr568       O596   2.386       .  S
Zr568       O598   2.402       .  S
O569        H610   0.990       .  S
O569        H613   0.989       .  S
O570        H603   0.990       .  S
O571       Zr591   2.261       .  S
O572       Zr592   2.376       .  S
O572        H599   0.945       .  S
O573       Zr585   2.557       .  S
O573        C575   1.306       .  A
O574       Zr592   2.374       .  S
O574        C575   1.276       .  A
C575       C1046   1.521       .  S
O576       Zr588   2.439       .  S
O576        C578   1.283       .  A
O577       Zr591   2.400       .  S
O577        C578   1.281       .  A
C578       C1069   1.468       .  S
O579       Zr588   2.465       .  S
O579        C581   1.292       .  A
O580       Zr592   2.406       .  S
O580        C581   1.281       .  A
C581       C1056   1.480       .  S
O582       Zr585   2.514       .  S
O582        C584   1.296       .  A
O583       Zr591   2.384       .  S
O583        C584   1.274       .  A
C584       C1076   1.501       .  S
Zr585       O586   2.441       .  S
Zr585       O587   2.437       .  S
Zr585       O594   2.301       .  S
Zr585       O593   2.344       .  S
Zr585       O597   2.400       .  S
Zr585       O595   2.403       .  S
O586        H606   0.991       .  S
O586        H611   0.989       .  S
O587        H607   0.990       .  S
Zr588       O589   2.438       .  S
Zr588       O590   2.436       .  S
Zr588       O594   2.296       .  S
Zr588       O593   2.358       .  S
Zr588       O598   2.382       .  S
Zr588       O596   2.377       .  S
O589        H605   0.990       .  S
O590        H604   0.990       .  S
O590        H614   0.990       .  S
Zr591       O594   2.270       .  S
Zr591       O596   2.386       .  S
Zr591       O597   2.388       .  S
Zr592       O593   2.379       .  S
Zr592       O595   2.383       .  S
Zr592       O598   2.383       .  S
O593        H601   0.956       .  S
O596        H600   0.973       .  S
O597        H602   0.954       .  S
O615       Zr627   2.526       .  S
O615        C617   1.301       .  A
O616       Zr653   2.391   1_455  S
O616        C617   1.281       .  A
C617       C1006   1.503       .  S
O618       Zr630   2.468       .  S
O618        C620   1.290       .  A
O619       Zr654   2.387   1_655  S
O619        C620   1.277       .  A
C620        C966   1.464       .  S
O621       Zr630   2.458       .  S
O621        C623   1.286       .  A
O622       Zr653   2.407       .  S
O622        C623   1.281       .  A
C623       C1019   1.492       .  S
O624       Zr627   2.535       .  S
O624        C626   1.298       .  A
O625       Zr654   2.396       .  S
O625        C626   1.267       .  A
C626        C976   1.518       .  S
Zr627       O628   2.440       .  S
Zr627       O629   2.442       .  S
Zr627       O633   2.292   1_455  S
Zr627       O657   2.315       .  S
Zr627       O634   2.389       .  S
Zr627       O659   2.401       .  S
O628        H671   0.990       .  S
O629        H670   0.991       .  S
O629        H674   0.990       .  S
Zr630       O631   2.444       .  S
Zr630       O632   2.441       .  S
Zr630       O633   2.293       .  S
Zr630       O634   2.361   1_655  S
Zr630       O658   2.375       .  S
Zr630       O660   2.378       .  S
O631        H672   0.992       .  S
O631        H675   0.988       .  S
O632        H665   0.991       .  S
O633       Zr653   2.261       .  S
O634       Zr654   2.389       .  S
O634        H661   0.958       .  S
O635       Zr647   2.481       .  S
O635        C637   1.291       .  A
O636       Zr654   2.404       .  S
O636        C637   1.280       .  A
C637        C946   1.486       .  S
O638       Zr650   2.526       .  S
O638        C640   1.299       .  A
O639       Zr653   2.384       .  S
O639        C640   1.274       .  A
C640        C986   1.515       .  S
O641       Zr650   2.564       .  S
O641        C643   1.310       .  A
O642       Zr654   2.354   1_655  S
O642        C643   1.275       .  A
C643        C959   1.515       .  S
O644       Zr647   2.443       .  S
O644        C646   1.285       .  A
O645       Zr653   2.396   1_455  S
O645        C646   1.278       .  A
C646        C996   1.484       .  S
Zr647       O648   2.447       .  S
Zr647       O649   2.439       .  S
Zr647       O656   2.289       .  S
Zr647       O657   2.295       .  S
Zr647       O655   2.368       .  S
Zr647       O659   2.394       .  S
O648        H668   0.989       .  S
O648        H673   0.990       .  S
O649        H669   0.990       .  S
Zr650       O651   2.436       .  S
Zr650       O652   2.438       .  S
Zr650       O656   2.302   1_655  S
Zr650       O655   2.335   1_655  S
Zr650       O660   2.392       .  S
Zr650       O658   2.400       .  S
O651        H667   0.990       .  S
O652        H666   0.990       .  S
O652        H676   0.990       .  S
Zr653       O656   2.274   1_655  S
Zr653       O658   2.390       .  S
Zr653       O659   2.388   1_655  S
Zr654       O657   2.284       .  S
Zr654       O655   2.375       .  S
Zr654       O660   2.385   1_455  S
O655        H663   0.964       .  S
O658        H662   0.963       .  S
O659        H664   0.955       .  S
O677       Zr689   2.462       .  S
O677        C679   1.289       .  A
O678       Zr715   2.387       .  S
O678        C679   1.279       .  A
C679        C926   1.475       .  S
O680       Zr692   2.498       .  S
O680        C682   1.298       .  A
O681       Zr716   2.426       .  S
O681        C682   1.285       .  A
C682        C886   1.512       .  S
O683       Zr692   2.475       .  S
O683        C685   1.293       .  A
O684       Zr715   2.426   1_545  S
O684        C685   1.284       .  A
C685        C936   1.509       .  S
O686       Zr689   2.468       .  S
O686        C688   1.290       .  A
O687       Zr716   2.381   1_565  S
O687        C688   1.275       .  A
C688        C896   1.471       .  S
Zr689       O690   2.438       .  S
Zr689       O691   2.439       .  S
Zr689       O695   2.286       .  S
Zr689       O696   2.376       .  S
Zr689       O719   2.382       .  S
Zr689       O721   2.386       .  S
O690        H733   0.990       .  S
O691        H732   0.989       .  S
O691        H736   0.991       .  S
Zr692       O693   2.440       .  S
Zr692       O694   2.437       .  S
Zr692       O695   2.290   1_545  S
Zr692       O696   2.358   1_545  S
Zr692       O720   2.380       .  S
Zr692       O722   2.386       .  S
O693        H734   0.992       .  S
O693        H737   0.989       .  S
O694        H727   0.990       .  S
O695       Zr715   2.271       .  S
O696       Zr716   2.389   1_565  S
O696        H723   0.959       .  S
O697       Zr709   2.467       .  S
O697        C699   1.290       .  A
O698       Zr716   2.436   1_565  S
O698        C699   1.290       .  A
C699        C866   1.503       .  S
O700       Zr712   2.455       .  S
O700        C702   1.286       .  A
O701       Zr715   2.383   1_545  S
O701        C702   1.279       .  A
C702        C906   1.475       .  S
O703       Zr712   2.472       .  S
O703        C705   1.292       .  A
O704       Zr716   2.387       .  S
O704        C705   1.278       .  A
C705        C879   1.481       .  S
O706       Zr709   2.449       .  S
O706        C708   1.286       .  A
O707       Zr715   2.449       .  S
O707        C708   1.292       .  A
C708        C916   1.508       .  S
Zr709       O710   2.438       .  S
Zr709       O711   2.434       .  S
Zr709       O717   2.353   1_565  S
Zr709       O718   2.360   1_565  S
Zr709       O721   2.391       .  S
Zr709       O719   2.389       .  S
O710        H730   0.988       .  S
O710        H735   0.990       .  S
O711        H731   0.990       .  S
Zr712       O713   2.436       .  S
Zr712       O714   2.433       .  S
Zr712       O718   2.373       .  S
Zr712       O717   2.370       .  S
Zr712       O722   2.384       .  S
Zr712       O720   2.392       .  S
O713        H729   0.990       .  S
O714        H728   0.991       .  S
O714        H738   0.990       .  S
Zr715       O718   2.358   1_565  S
Zr715       O720   2.395   1_565  S
Zr715       O721   2.386       .  S
Zr716       O717   2.371       .  S
Zr716       O719   2.386   1_545  S
Zr716       O722   2.391       .  S
O717        H725   0.968       .  S
O720        H724   0.970       .  S
O721        H726   0.956       .  S
C739        C799   1.501       .  S
C739        N740   1.384       .  A
C739        N744   1.388       .  A
N740        C741   1.372       .  A
C741       C1096   1.472       .  S
C741        N742   1.329       .  A
N742        C743   1.330       .  A
C743       C1009   1.485       .  S
C743        N744   1.376       .  A
C745        C798   1.461       .  S
C745        N746   1.362       .  A
C745        N750   1.361       .  A
N746        C747   1.360       .  A
C747       C1066   1.460       .  S
C747        N748   1.348       .  A
N748        C749   1.348       .  A
C749        C999   1.460       .  S
C749        N750   1.358       .  A
C751        C835   1.492       .  S
C751        N752   1.373       .  A
C751        N756   1.375       .  A
N752        C753   1.372       .  A
C753        C949   1.460       .  S
C753        N754   1.342       .  A
N754        C755   1.333       .  A
C755        C919   1.470       .  S
C755        N756   1.355       .  A
C757        C833   1.491       .  S
C757        N758   1.376       .  A
C757        N762   1.366       .  A
N758        C759   1.373       .  A
C759        C989   1.478       .  S
C759        N760   1.343       .  A
N760        C761   1.342       .  A
C761        C876   1.462       .  S
C761        N762   1.361       .  A
C763        C801   1.495       .  S
C763        N764   1.377       .  A
C763        N768   1.366       .  A
N764        C765   1.363       .  A
C765        C889   1.479       .  S
C765        N766   1.338       .  A
N766        C767   1.345       .  A
C767       C1016   1.457       .  S
C767        N768   1.368       .  A
C769        C800   1.496       .  S
C769        N770   1.380       .  A
C769        N774   1.368       .  A
N770        C771   1.360       .  A
C771        C939   1.479       .  S
C771        N772   1.335       .  A
N772        C773   1.344       .  A
C773       C1086   1.456       .  S
C773        N774   1.369       .  A
C775        C831   1.506       .  S
C775        N776   1.368       .  A
C775        N780   1.383       .  A
N776        C777   1.362       .  A
C777        C929   1.463       .  S
C777        N778   1.341       .  A
N778        C779   1.342       .  A
C779        C979   1.489       .  S
C779        N780   1.379       .  A
C781        C834   1.475       .  S
C781        N782   1.361       .  A
C781        N786   1.375       .  A
N782        C783   1.355       .  A
C783        C909   1.451       .  S
C783        N784   1.340       .  A
N784        C785   1.343       .  A
C785       C1079   1.474       .  S
C785        N786   1.371       .  A
O787       Zr823   2.470       .  S
O787        C798   1.299       .  A
O788       Zr822   2.637   1_445  S
O788        C799   1.334       .  A
O789       Zr795   2.560       .  S
O789        C800   1.313       .  A
O790       Zr795   2.545   1_655  S
O790        C801   1.311       .  A
O791        C801   1.280       .  A
O792        C800   1.277       .  A
O793       Zr795   2.303       .  S
O793        C799   1.267       .  A
O794        C798   1.290       .  A
Zr795       O796   2.348   1_455  S
Zr795       O803   2.354       .  S
O796       Zr822   2.342   1_545  S
O797       Zr823   2.372       .  S
O797       Zr824   2.327   1_545  S
H802        O803   0.967       .  S
O803       Zr822   2.335   1_445  S
H804        O805   0.958       .  S
O805       Zr823   2.376   1_655  S
O805       Zr825   2.332   1_545  S
O806       Zr822   2.441       .  S
O806        C829   1.294       .  A
O807       Zr823   2.627   1_665  S
O807        C830   1.332       .  A
O808        C831   1.294       .  A
O809        C832   1.293       .  A
O810       Zr825   2.444   1_545  S
O810        C833   1.292       .  A
O811       Zr824   2.427   1_545  S
O811        C834   1.289       .  A
O812       Zr826   2.533   1_455  S
O812        C835   1.306       .  A
O813       Zr826   2.509       .  S
O813        C836   1.302       .  A
O814       Zr824   2.379       .  S
O814        C835   1.280       .  A
O815       Zr825   2.378       .  S
O815        C836   1.280       .  A
O816       Zr822   2.516   1_455  S
O816        C831   1.306       .  A
O817       Zr823   2.484       .  S
O817        C834   1.300       .  A
O818       Zr823   2.508   1_655  S
O818        C833   1.304       .  A
O819       Zr822   2.514       .  S
O819        C832   1.306       .  A
O820        C829   1.288       .  A
O821       Zr826   2.321       .  S
O821        C830   1.270       .  A
Zr822       O828   2.378   1_655  S
Zr822       O840   2.391       .  S
Zr823       O827   2.337   1_445  S
Zr823       O838   2.352   1_545  S
Zr824       O838   2.340       .  S
Zr825       O827   2.327       .  S
Zr826       O827   2.347       .  S
Zr826       O838   2.347   1_655  S
C829        C859   1.439       .  S
C830        C853   1.502       .  S
C832        C847   1.491       .  S
C836        C841   1.481       .  S
H837        O838   0.958       .  S
H839        O840   0.967       .  S
C841        N842   1.368       .  A
C841        N846   1.374       .  A
N842        C843   1.366       .  A
C843       C1059   1.453       .  S
C843        N844   1.342       .  A
N844        C845   1.334       .  A
C845        C869   1.466       .  S
C845        N846   1.355       .  A
C847        N848   1.383       .  A
C847        N852   1.364       .  A
N848        C849   1.378       .  A
C849       C1029   1.498       .  S
C849        N850   1.342       .  A
N850        C851   1.338       .  A
C851        C899   1.454       .  S
C851        N852   1.356       .  A
C853        N854   1.385       .  A
C853        N858   1.384       .  A
N854        C855   1.374       .  A
C855       C1049   1.477       .  S
C855        N856   1.332       .  A
N856        C857   1.332       .  A
C857        C956   1.476       .  S
C857        N858   1.373       .  A
C859        N860   1.355       .  A
C859        N864   1.360       .  A
N860        C861   1.349       .  A
C861        C969   1.443       .  S
C861        N862   1.345       .  A
N862        C863   1.347       .  A
C863       C1036   1.456       .  S
C863        N864   1.356       .  A
C865        C866   1.411       .  A
C865        C870   1.398       .  A
C865        H872   1.083       .  S
C866        C867   1.423       .  A
C867        C868   1.403       .  A
C867       Br874   1.918       .  S
C868        C869   1.399       .  A
C868        H873   1.084       .  S
C869        C870   1.405       .  A
C870       Br871   1.920       .  S
C875        C876   1.400       .  A
C875        C880   1.393       .  A
C875        H882   1.083       .  S
C876        C877   1.407       .  A
C877        C878   1.400       .  A
C877       Br884   1.915       .  S
C878        C879   1.407       .  A
C878        H883   1.083       .  S
C879        C880   1.412       .  A
C880       Br881   1.917       .  S
C885        C886   1.412       .  A
C885        C890   1.408       .  A
C885        H892   1.083       .  S
C886        C887   1.426       .  A
C887        C888   1.402       .  A
C887       Br894   1.918       .  S
C888        C889   1.398       .  A
C888        H893   1.085       .  S
C889        C890   1.409       .  A
C890       Br891   1.917       .  S
C895        C896   1.407       .  A
C895        C900   1.399       .  A
C895        H902   1.083       .  S
C896        C897   1.408       .  A
C897        C898   1.395       .  A
C897       Br904   1.923       .  S
C898        C899   1.405       .  A
C898        H903   1.085       .  S
C899        C900   1.403       .  A
C900       Br901   1.916       .  S
C905        C906   1.403       .  A
C905        C910   1.384       .  A
C905        H912   1.084       .  S
C906        C907   1.418       .  A
C907        C908   1.400       .  A
C907       Br914   1.921       .  S
C908        C909   1.399       .  A
C908        H913   1.084       .  S
C909        C910   1.405       .  A
C910       Br911   1.920       .  S
C915        C916   1.412       .  A
C915        C920   1.404       .  A
C915        H922   1.082       .  S
C916        C917   1.425       .  A
C917        C918   1.402       .  A
C917       Br924   1.920       .  S
C918        C919   1.399       .  A
C918        H923   1.084       .  S
C919        C920   1.405       .  A
C920       Br921   1.918       .  S
C925        C926   1.409       .  A
C925        C930   1.404       .  A
C925        H932   1.083       .  S
C926        C927   1.408       .  A
C927        C928   1.391       .  A
C927       Br934   1.924       .  S
C928        C929   1.403       .  A
C928        H933   1.085       .  S
C929        C930   1.407       .  A
C930       Br931   1.916       .  S
C935        C936   1.412       .  A
C935        C940   1.406       .  A
C935        H942   1.083       .  S
C936        C937   1.424       .  A
C937        C938   1.404       .  A
C937       Br944   1.924       .  S
C938        C939   1.402       .  A
C938        H943   1.084       .  S
C939        C940   1.407       .  A
C940       Br941   1.916       .  S
C945        C946   1.403       .  A
C945        C950   1.390       .  A
C945        H952   1.083       .  S
C946        C947   1.421       .  A
C947        C948   1.404       .  A
C947       Br954   1.918       .  S
C948        C949   1.399       .  A
C948        H953   1.084       .  S
C949        C950   1.411       .  A
C950       Br951   1.921       .  S
C955        C956   1.414       .  A
C955        C960   1.417       .  A
C955        H962   1.083       .  S
C956        C957   1.401       .  A
C957        C958   1.397       .  A
C957       Br964   1.923       .  S
C958        C959   1.419       .  A
C958        H963   1.083       .  S
C959        C960   1.415       .  A
C960       Br961   1.915       .  S
C965        C966   1.404       .  A
C965        C970   1.392       .  A
C965        H972   1.084       .  S
C966        C967   1.411       .  A
C967        C968   1.391       .  A
C967       Br974   1.918       .  S
C968        C969   1.394       .  A
C968        H973   1.084       .  S
C969        C970   1.405       .  A
C970       Br971   1.923       .  S
C975        C976   1.409       .  A
C975        C980   1.416       .  A
C975        H982   1.083       .  S
C976        C977   1.431       .  A
C977        C978   1.403       .  A
C977       Br984   1.927       .  S
C978        C979   1.399       .  A
C978        H983   1.085       .  S
C979        C980   1.416       .  A
C980       Br981   1.913       .  S
C985        C986   1.414       .  A
C985        C990   1.395       .  A
C985        H992   1.082       .  S
C986        C987   1.419       .  A
C987        C988   1.418       .  A
C987       Br994   1.916       .  S
C988        C989   1.411       .  A
C988        H993   1.083       .  S
C989        C990   1.404       .  A
C990       Br991   1.926       .  S
C995        C996   1.410       .  A
C995       C1000   1.400       .  A
C995       H1002   1.083       .  S
C996        C997   1.415       .  A
C997        C998   1.393       .  A
C997      Br1004   1.921       .  S
C998        C999   1.398       .  A
C998       H1003   1.084       .  S
C999       C1000   1.403       .  A
C1000     Br1001   1.916       .  S
C1005      C1006   1.409       .  A
C1005      C1010   1.422       .  A
C1005      H1012   1.082       .  S
C1006      C1007   1.403       .  A
C1007      C1008   1.396       .  A
C1007     Br1014   1.915       .  S
C1008      C1009   1.406       .  A
C1008      H1013   1.085       .  S
C1009      C1010   1.421       .  A
C1010     Br1011   1.917       .  S
C1015      C1016   1.398       .  A
C1015      C1020   1.402       .  A
C1015      H1022   1.084       .  S
C1016      C1017   1.408       .  A
C1017      C1018   1.393       .  A
C1017     Br1024   1.924       .  S
C1018      C1019   1.408       .  A
C1018      H1023   1.083       .  S
C1019      C1020   1.423       .  A
C1020     Br1021   1.922       .  S
C1025      C1026   1.417       .  A
C1025      C1030   1.424       .  A
C1025      H1032   1.083       .  S
C1026      C1027   1.402       .  A
C1027      C1028   1.389       .  A
C1027     Br1034   1.923       .  S
C1028      C1029   1.411       .  A
C1028      H1033   1.082       .  S
C1029      C1030   1.410       .  A
C1030     Br1031   1.914       .  S
C1035      C1036   1.401       .  A
C1035      C1040   1.399       .  A
C1035      H1042   1.084       .  S
C1036      C1037   1.404       .  A
C1037      C1038   1.388       .  A
C1037     Br1044   1.922       .  S
C1038      C1039   1.412       .  A
C1038      H1043   1.083       .  S
C1039      C1040   1.417       .  A
C1040     Br1041   1.917       .  S
C1045      C1046   1.420       .  A
C1045      C1050   1.397       .  A
C1045      H1052   1.082       .  S
C1046      C1047   1.418       .  A
C1047      C1048   1.417       .  A
C1047     Br1054   1.915       .  S
C1048      C1049   1.414       .  A
C1048      H1053   1.084       .  S
C1049      C1050   1.402       .  A
C1050     Br1051   1.920       .  S
C1055      C1056   1.413       .  A
C1055      C1060   1.401       .  A
C1055      H1062   1.083       .  S
C1056      C1057   1.411       .  A
C1057      C1058   1.392       .  A
C1057     Br1064   1.921       .  S
C1058      C1059   1.402       .  A
C1058      H1063   1.085       .  S
C1059      C1060   1.400       .  A
C1060     Br1061   1.919       .  S
C1065      C1066   1.400       .  A
C1065      C1070   1.403       .  A
C1065      H1072   1.083       .  S
C1066      C1067   1.408       .  A
C1067      C1068   1.387       .  A
C1067     Br1074   1.921       .  S
C1068      C1069   1.397       .  A
C1068      H1073   1.084       .  S
C1069      C1070   1.414       .  A
C1070     Br1071   1.919       .  S
C1075      C1076   1.411       .  A
C1075      C1080   1.393       .  A
C1075      H1082   1.080       .  S
C1076      C1077   1.411       .  A
C1077      C1078   1.414       .  A
C1077     Br1084   1.917       .  S
C1078      C1079   1.415       .  A
C1078      H1083   1.083       .  S
C1079      C1080   1.402       .  A
C1080     Br1081   1.920       .  S
C1085      C1086   1.395       .  A
C1085      C1090   1.399       .  A
C1085      H1092   1.084       .  S
C1086      C1087   1.412       .  A
C1087      C1088   1.392       .  A
C1087     Br1094   1.924       .  S
C1088      C1089   1.399       .  A
C1088      H1093   1.083       .  S
C1089      C1090   1.421       .  A
C1090     Br1091   1.921       .  S
C1095      C1096   1.394       .  A
C1095      C1100   1.398       .  A
C1095      H1102   1.084       .  S
C1096      C1097   1.416       .  A
C1097      C1098   1.410       .  A
C1097     Br1104   1.918       .  S
C1098      C1099   1.406       .  A
C1098      H1103   1.083       .  S
C1099      C1100   1.431       .  A
C1100     Br1101   1.928       .  S
