geometry optimzed in LAMMPS
_audit_creation_date              2020-12-01 
_audit_creation_method            'lammps2cif' 
_symmetry_space_group_name_H-M    'P1' 
_symmetry_Int_Tables_number       1 
_symmetry_cell_setting            triclinic 
loop_ 
_symmetry_equiv_pos_as_xyz 
  x,y,z 
_cell_length_a                    55.11446326 
_cell_length_b                    55.09161947875109 
_cell_length_c                    54.92095508650836 
_cell_angle_alpha                 90.07408099322741 
_cell_angle_beta                  90.42184478924518 
_cell_angle_gamma                 89.93721304311367 
loop_ 
_atom_site_label 
_atom_site_type_symbol 
_atom_site_fract_x 
_atom_site_fract_y 
_atom_site_fract_z 
_atom_site_charge 
C1          C  0.10990190  0.85659239  0.50559688     0.01900
C2          C  0.11911579  0.86382507  0.48263641     0.01900
C3          C  0.13703541  0.88227703  0.48173027     0.01900
C4          C  0.14472295  0.89349897  0.50364292     0.01900
C5          C  0.14014177  0.88198924  0.52616665     0.01900
C6          C  0.12279729  0.86301308  0.52712909     0.01900
C7          C  0.15014022  0.11702128  0.49524473     0.01900
C8          C  0.14438645  0.12631682  0.47187230     0.01900
C9          C  0.12649921  0.14472383  0.46980577     0.01900
C10         C  0.11368721  0.15228832  0.49075295     0.01900
C11         C  0.12366912  0.14741257  0.51406698     0.01900
C12         C  0.14240530  0.12986834  0.51620307     0.01900
C13         C  0.89311078  0.14502659  0.49971704     0.01900
C14         C  0.88240454  0.13744511  0.47749404     0.01900
C15         C  0.86357475  0.12001996  0.47813729     0.01900
C16         C  0.85821501  0.10835235  0.50046181     0.01900
C17         C  0.86470219  0.11980434  0.52268706     0.01900
C18         C  0.88171017  0.13914647  0.52203249     0.01900
C19         C  0.88542881  0.85311402  0.50096254     0.01900
C20         C  0.87400518  0.85935307  0.47870283     0.01900
C21         C  0.85476181  0.87646673  0.47871698     0.01900
C22         C  0.84748502  0.88684438  0.50117991     0.01900
C23         C  0.85456646  0.87562135  0.52339735     0.01900
C24         C  0.87366792  0.85835223  0.52315955     0.01900
C25         C  0.49770417  0.14091238  0.10998205     0.01900
C26         C  0.52102873  0.13687945  0.12004964     0.01900
C27         C  0.52360270  0.12022268  0.13937320     0.01900
C28         C  0.50337531  0.10652758  0.14720880     0.01900
C29         C  0.47973250  0.11484318  0.14132093     0.01900
C30         C  0.47703374  0.13278614  0.12292562     0.01900
C31         C  0.50729418  0.14807899  0.88885990     0.01900
C32         C  0.48428193  0.13997348  0.88050285     0.01900
C33         C  0.48361629  0.12090357  0.86308762     0.01900
C34         C  0.50554465  0.10932644  0.85587968     0.01900
C35         C  0.52812529  0.12105936  0.86005052     0.01900
C36         C  0.52860377  0.14123387  0.87617229     0.01900
C37         C  0.50086720  0.88504355  0.14836507     0.01900
C38         C  0.47919103  0.87404528  0.13976504     0.01900
C39         C  0.48021353  0.85563535  0.12175187     0.01900
C40         C  0.50301626  0.84890358  0.11237158     0.01900
C41         C  0.52434719  0.85556169  0.12526298     0.01900
C42         C  0.52342294  0.87391957  0.14338582     0.01900
C43         C  0.50501335  0.88660531  0.84944546     0.01900
C44         C  0.48229078  0.87745920  0.85712371     0.01900
C45         C  0.48192634  0.86071112  0.87663294     0.01900
C46         C  0.50386330  0.85417663  0.88852183     0.01900
C47         C  0.52629916  0.85831349  0.87675558     0.01900
C48         C  0.52667541  0.87405381  0.85620136     0.01900
C49         C  0.11040245  0.50013356  0.85384421     0.01900
C50         C  0.12091825  0.52240567  0.86119867     0.01900
C51         C  0.13942507  0.52224185  0.87921394     0.01900
C52         C  0.14794609  0.49973517  0.88848458     0.01900
C53         C  0.14201112  0.47778888  0.87623069     0.01900
C54         C  0.12223646  0.47789411  0.85944268     0.01900
C55         C  0.15008118  0.50053750  0.11162580     0.01900
C56         C  0.14503106  0.47752995  0.12168582     0.01900
C57         C  0.12872138  0.47582919  0.14139226     0.01900
C58         C  0.11687071  0.49704016  0.14996329     0.01900
C59         C  0.12634762  0.52019139  0.14357718     0.01900
C60         C  0.14382463  0.52170094  0.12475878     0.01900
C61         C  0.89564270  0.50372492  0.15109622     0.01900
C62         C  0.88675192  0.48071204  0.14394521     0.01900
C63         C  0.86775022  0.47929312  0.12653891     0.01900
C64         C  0.85875680  0.50087876  0.11585064     0.01900
C65         C  0.86380394  0.52345544  0.12704048     0.01900
C66         C  0.88185094  0.52460822  0.14542093     0.01900
C67         C  0.88744717  0.49518262  0.85637094     0.01900
C68         C  0.87427394  0.47397986  0.86247751     0.01900
C69         C  0.85696082  0.47510784  0.88144661     0.01900
C70         C  0.85229935  0.49775368  0.89270917     0.01900
C71         C  0.86015669  0.51940485  0.88144769     0.01900
C72         C  0.87840933  0.51815925  0.86348582     0.01900
O73         O  0.20343795  0.98075558  0.76195386    -0.80500
O74         O  0.23772694  0.02143008  0.80003191    -0.80500
O75         O  0.24864370  0.96463185  0.78494736    -0.80500
O76         O  0.22197907  0.05979812  0.74820343    -0.80500
O77         O  0.26983135  0.98527102  0.81260524    -0.80600
O78         O  0.19974694  0.03049208  0.76364654    -0.80500
O79         O  0.25510333  0.05315098  0.78284382    -0.80500
O80         O  0.22650771  0.95422468  0.74406494    -0.80500
C81         C  0.20656866  0.95944184  0.75420405     1.09200
C82         C  0.24184382  0.04410463  0.79947737     1.09100
C83         C  0.25653246  0.96728264  0.80697043     1.09200
C84         C  0.20341559  0.05285429  0.76001474     1.09100
O85         O  0.21386101  0.03271671  0.71337742    -0.80500
O86         O  0.28964116  0.98013742  0.76771429    -0.80600
O87         O  0.25900462  0.97904642  0.71343565    -0.80500
O88         O  0.29014304  0.03444217  0.74808816    -0.80500
O89         O  0.28788057  0.02359287  0.78645835    -0.80600
O90         O  0.21897784  0.98472380  0.71126287    -0.80500
O91         O  0.25338733  0.03970159  0.71138232    -0.80500
O92         O  0.27669931  0.94664641  0.74923423    -0.80600
Co93       Co  0.21055181  0.00709424  0.73892396     1.51500
Co94       Co  0.26077244  0.00011530  0.78268405     1.51700
Co95       Co  0.25619939  0.97486710  0.74912928     1.51600
Co96       Co  0.25530040  0.04437042  0.74727430     1.51500
O97         O  0.24455419  0.00932170  0.75170785    -1.42400
C98         C  0.23224037  0.04071769  0.70200312     1.09100
C99         C  0.29358757  0.95824211  0.76012170     1.09200
C100        C  0.23904904  0.97862618  0.70149806     1.09100
C101        C  0.30012015  0.03190900  0.76888275     1.09100
O102        O  0.02696312  0.20315669  0.76273455    -0.80500
O103        O  0.97743570  0.27354232  0.80895320    -0.80500
O104        O  0.04603275  0.26129308  0.77944052    -0.80500
O105        O  0.94893024  0.22485595  0.74337230    -0.80500
O106        O  0.01529971  0.24310820  0.79751382    -0.80600
O107        O  0.97690692  0.20370101  0.76175972    -0.80500
O108        O  0.95847187  0.24863785  0.78359350    -0.80500
O109        O  0.05442456  0.22706546  0.74637921    -0.80500
C110        C  0.04895615  0.20880486  0.75940073     1.09200
C111        C  0.96035048  0.25862653  0.80478418     1.09100
C112        C  0.03741970  0.24935981  0.79733034     1.09200
C113        C  0.95524722  0.20573375  0.75446993     1.09100
O114        O  0.97878372  0.21855091  0.71037000    -0.80500
O115        O  0.01459388  0.29275888  0.78107269    -0.80600
O116        O  0.03252644  0.25529042  0.70805420    -0.80500
O117        O  0.93786210  0.27394320  0.74698314    -0.80500
O118        O  0.97109109  0.29049743  0.76273070    -0.80600
O119        O  0.02715823  0.21563118  0.71187293    -0.80500
O120        O  0.97109603  0.25827513  0.71176442    -0.80500
O121        O  0.02511396  0.29316391  0.74257968    -0.80600
Co122      Co  0.00235362  0.21189381  0.73796786     1.51500
Co123      Co  0.99271910  0.26391249  0.77926104     1.51700
Co124      Co  0.03711441  0.25912509  0.74385320     1.51600
Co125      Co  0.96760906  0.25579974  0.74734546     1.51500
O126        O  0.00282403  0.24648446  0.74933263    -1.42400
C127        C  0.97058644  0.23802366  0.70058422     1.09100
C128        C  0.02266900  0.30415705  0.76274033     1.09200
C129        C  0.03261356  0.23399210  0.69902340     1.09100
C130        C  0.94865554  0.29228222  0.75603983     1.09100
O131        O  0.01474080  0.80333199  0.23739007    -0.80500
O132        O  0.97231407  0.76679254  0.20208826    -0.80500
O133        O  0.05210470  0.75163224  0.21769110    -0.80500
O134        O  0.95859124  0.78697081  0.25049810    -0.80500
O135        O  0.02186097  0.76830560  0.19742535    -0.80600
O136        O  0.98010014  0.81396495  0.27163722    -0.80500
O137        O  0.94743071  0.74815447  0.22640775    -0.80500
O138        O  0.04772421  0.78552409  0.25203630    -0.80500
C139        C  0.03755136  0.80328095  0.24101851     1.09200
C140        C  0.95095135  0.76031127  0.20711858     1.09100
C141        C  0.04407222  0.76303489  0.19913769     1.09200
C142        C  0.96114993  0.80843666  0.25958595     1.09100
O143        O  0.97582462  0.76826655  0.28965258    -0.80500
O144        O  0.02458147  0.71730362  0.20990922    -0.80600
O145        O  0.03127806  0.74975620  0.28740044    -0.80500
O146        O  0.97463872  0.71535019  0.25644089    -0.80500
O147        O  0.97683691  0.71586574  0.21606592    -0.80600
O148        O  0.01961219  0.78779958  0.28671818    -0.80500
O149        O  0.94264514  0.74919294  0.27663182    -0.80500
O150        O  0.03366370  0.71441325  0.24924171    -0.80600
Co151      Co  0.99466246  0.78476383  0.26057356     1.51500
Co152      Co  0.99898098  0.74342070  0.20805669     1.51700
Co153      Co  0.03878057  0.75004063  0.25176889     1.51600
Co154      Co  0.96975621  0.75097065  0.25550400     1.51500
O155        O  0.00321489  0.75486145  0.24252870    -1.42400
C156        C  0.95411433  0.76009930  0.29359574     1.09100
C157        C  0.03325384  0.70539674  0.22789692     1.09200
C158        C  0.02902245  0.77011006  0.29809846     1.09100
C159        C  0.97336985  0.70453089  0.23595799     1.09100
O160        O  0.28746213  0.78392096  0.02675855    -0.80500
O161        O  0.21434282  0.71823333  0.97702960    -0.80500
O162        O  0.25193487  0.72272263  0.05530241    -0.80500
O163        O  0.29011739  0.75171154  0.96825462    -0.80500
O164        O  0.23120960  0.71268060  0.02176153    -0.80600
O165        O  0.28894488  0.79064460  0.97878225    -0.80500
O166        O  0.25293865  0.71564326  0.96777069    -0.80500
O167        O  0.28722953  0.74373211  0.02581171    -0.80500
C168        C  0.29815240  0.76366683  0.03013375     1.09200
C169        C  0.23200231  0.70602008  0.96888597     1.09100
C170        C  0.24004988  0.70705643  0.04304639     1.09200
C171        C  0.30043827  0.77222878  0.97069818     1.09100
O172        O  0.23849706  0.80550573  0.97824464    -0.80500
O173        O  0.18672718  0.73415365  0.01540324    -0.80600
O174        O  0.25294270  0.77299962  0.05270106    -0.80500
O175        O  0.22024677  0.75302700  0.94952517    -0.80500
O176        O  0.20109899  0.76788270  0.98157963    -0.80600
O177        O  0.23669342  0.79914818  0.02753422    -0.80500
O178        O  0.25579675  0.78561307  0.94825581    -0.80500
O179        O  0.21492500  0.75054587  0.03944773    -0.80600
Co180      Co  0.26153138  0.79325884  0.00253290     1.51500
Co181      Co  0.21733554  0.74343516  0.00265976     1.51700
Co182      Co  0.25127743  0.74503562  0.02913655     1.51600
Co183      Co  0.25497267  0.75125076  0.96082950     1.51500
O184        O  0.24864612  0.75971767  0.99632956    -1.42400
C185        C  0.24392143  0.80384616  0.95604359     1.09100
C186        C  0.19268086  0.74438441  0.03531062     1.09200
C187        C  0.24042986  0.79205934  0.04910357     1.09100
C188        C  0.20262101  0.76490777  0.95864258     1.09100
O189        O  0.02515547  0.21424174  0.27959959    -0.80500
O190        O  0.98005901  0.28506371  0.21046526    -0.80500
O191        O  0.06047581  0.26809520  0.23750359    -0.80500
O192        O  0.97291147  0.25375250  0.28799372    -0.80500
O193        O  0.02613162  0.28378216  0.22290611    -0.80600
O194        O  0.97749048  0.21374216  0.28633829    -0.80500
O195        O  0.97556231  0.28898514  0.24997500    -0.80500
O196        O  0.03155355  0.25393841  0.27661588    -0.80500
C197        C  0.03358507  0.23405160  0.28822605     1.09200
C198        C  0.97637359  0.29837499  0.22888485     1.09100
C199        C  0.04883036  0.28610941  0.22884628     1.09200
C200        C  0.97319576  0.23307702  0.29836258     1.09100
O201        O  0.96928085  0.19810706  0.23661170    -0.80500
O202        O  0.01246896  0.26427621  0.17925001    -0.80600
O203        O  0.04930214  0.21903683  0.24244837    -0.80500
O204        O  0.94903649  0.25481653  0.21914742    -0.80500
O205        O  0.97648579  0.23477968  0.19784719    -0.80600
O206        O  0.01856552  0.19758478  0.22953886    -0.80500
O207        O  0.94518950  0.22336951  0.25594039    -0.80500
O208        O  0.03600746  0.24221661  0.20348346    -0.80600
Co209      Co  0.99751162  0.20744195  0.25661342     1.51500
Co210      Co  0.00181023  0.25640214  0.21121691     1.51700
Co211      Co  0.03089419  0.25038531  0.24069207     1.51600
Co212      Co  0.96305362  0.25517055  0.25312836     1.51500
O213        O  0.99586632  0.24128532  0.24332193    -1.42400
C214        C  0.94822496  0.20437561  0.24310505     1.09100
C215        C  0.03072010  0.25050798  0.18206115     1.09200
C216        C  0.04109400  0.19957383  0.23317618     1.09100
C217        C  0.95444677  0.24004739  0.20207699     1.09100
O218        O  0.21092464  0.98020973  0.28402506    -0.80500
O219        O  0.28201840  0.01587512  0.20836204    -0.80500
O220        O  0.28322638  0.96256901  0.24608258    -0.80500
O221        O  0.25180012  0.05482976  0.26854657    -0.80500
O222        O  0.27859223  0.96806251  0.20625298    -0.80600
O223        O  0.23152181  0.02332852  0.28356377    -0.80500
O224        O  0.28446713  0.02097862  0.24847623    -0.80500
O225        O  0.24886246  0.96810648  0.28495075    -0.80500
C226        C  0.22854581  0.97078591  0.29554309     1.09200
C227        C  0.29439873  0.02079310  0.22747163     1.09100
C228        C  0.29135392  0.96127658  0.22447721     1.09200
C229        C  0.24085337  0.04479674  0.28621314     1.09100
O230        O  0.18519764  0.01879919  0.26646955    -0.80500
O231        O  0.22763315  0.97040193  0.19458429    -0.80600
O232        O  0.21239344  0.94936255  0.25172661    -0.80500
O233        O  0.25102229  0.04638537  0.21901024    -0.80500
O234        O  0.23073510  0.02134942  0.19559946    -0.80600
O235        O  0.19406121  0.98102392  0.23495369    -0.80500
O236        O  0.21247464  0.03839944  0.24422893    -0.80500
O237        O  0.24473732  0.94186590  0.21708032    -0.80600
Co238      Co  0.21376331  0.00283081  0.25610297     1.51500
Co239      Co  0.25331393  0.99397726  0.20297095     1.51700
Co240      Co  0.24775965  0.95789336  0.24993829     1.51600
Co241      Co  0.24859002  0.02643488  0.24906891     1.51500
O242        O  0.24303192  0.99254632  0.23807022    -1.42400
C243        C  0.19075947  0.03648068  0.25279729     1.09100
C244        C  0.23177626  0.94815027  0.19883595     1.09200
C245        C  0.19470369  0.95840489  0.23967623     1.09100
C246        C  0.23789969  0.04272848  0.20033802     1.09100
O247        O  0.22805339  0.19669733  0.02161788    -0.80500
O248        O  0.18748097  0.27060794  0.97482825    -0.80500
O249        O  0.21330982  0.25337466  0.04379568    -0.80500
O250        O  0.25063878  0.22040965  0.94554436    -0.80500
O251        O  0.19616428  0.23780935  0.01085083    -0.80600
O252        O  0.23046299  0.19857446  0.97159436    -0.80500
O253        O  0.21307867  0.24684908  0.95479905    -0.80500
O254        O  0.24510743  0.21751727  0.05133673    -0.80500
C255        C  0.23214093  0.19980392  0.04407306     1.09200
C256        C  0.19182561  0.25647294  0.95715969     1.09100
C257        C  0.19513289  0.24343212  0.03322233     1.09200
C258        C  0.23692076  0.20250077  0.94992451     1.09100
O259        O  0.28245709  0.20915650  0.97617648    -0.80500
O260        O  0.21399211  0.28630285  0.01347600    -0.80600
O261        O  0.28459362  0.24553527  0.03268766    -0.80500
O262        O  0.25174819  0.27029861  0.93728660    -0.80500
O263        O  0.23429310  0.28596535  0.97007336    -0.80600
O264        O  0.27949452  0.20638214  0.02451842    -0.80500
O265        O  0.28580534  0.24891808  0.97021462    -0.80500
O266        O  0.25159264  0.28559845  0.02681857    -0.80600
Co267      Co  0.25391005  0.20459673  0.99844220     1.51500
Co268      Co  0.21614154  0.25891916  0.99012865     1.51700
Co269      Co  0.24904631  0.25050338  0.03608972     1.51600
Co270      Co  0.24963908  0.25059081  0.96583858     1.51500
O271        O  0.24500655  0.23991978  0.00040134    -1.42400
C272        C  0.29530752  0.22767160  0.97084163     1.09100
C273        C  0.23196299  0.29716958  0.02288331     1.09200
C274        C  0.29248533  0.22377165  0.03270332     1.09100
C275        C  0.24143714  0.28817970  0.94775049     1.09100
O276        O  0.78493582  0.02943353  0.28375988    -0.80500
O277        O  0.70816929  0.97753187  0.25411975    -0.80500
O278        O  0.72498798  0.06511414  0.25228381    -0.80500
O279        O  0.74526845  0.97570280  0.28622766    -0.80500
O280        O  0.70850126  0.02900340  0.25257050    -0.80600
O281        O  0.78473241  0.98133308  0.28546423    -0.80500
O282        O  0.72565008  0.94186784  0.25302782    -0.80500
O283        O  0.74533091  0.03222033  0.28562267    -0.80500
C284        C  0.76596053  0.03516051  0.29535815     1.09200
C285        C  0.70636700  0.95454096  0.25054064     1.09100
C286        C  0.70650890  0.05177753  0.24797616     1.09200
C287        C  0.76573413  0.97533689  0.29695988     1.09100
O288        O  0.79948626  0.97844707  0.23501447    -0.80500
O289        O  0.72078205  0.02514136  0.20054898    -0.80600
O290        O  0.77639535  0.05695216  0.24984960    -0.80500
O291        O  0.75308606  0.96115617  0.21654455    -0.80500
O292        O  0.72046558  0.97731007  0.20246794    -0.80600
O293        O  0.79933364  0.02884770  0.23328740    -0.80500
O294        O  0.77746927  0.95083946  0.25328380    -0.80500
O295        O  0.75076080  0.04509143  0.21563922    -0.80600
Co296      Co  0.78993696  0.00438521  0.25776875     1.51500
Co297      Co  0.71748011  0.00242441  0.22871539     1.51700
Co298      Co  0.74590924  0.03693341  0.24979158     1.51600
Co299      Co  0.74677306  0.96999279  0.25046771     1.51500
O300        O  0.75582237  0.00345979  0.24228957    -1.42400
C301        C  0.79662452  0.95677125  0.24198126     1.09100
C302        C  0.73772937  0.03995603  0.19785109     1.09200
C303        C  0.79485083  0.05106916  0.23729038     1.09100
C304        C  0.73846430  0.96376858  0.19943971     1.09100
O305        O  0.71276774  0.21496086  0.02347355    -0.80500
O306        O  0.79075785  0.27937936  0.98418273    -0.80500
O307        O  0.75693390  0.28312088  0.04066368    -0.80500
O308        O  0.73006157  0.24712631  0.94511336    -0.80500
O309        O  0.79577289  0.27709555  0.03248552    -0.80600
O310        O  0.71377922  0.23676367  0.98025238    -0.80500
O311        O  0.75092391  0.28108651  0.97752386    -0.80500
O312        O  0.71599489  0.25225661  0.03654561    -0.80500
C313        C  0.70338809  0.23320827  0.03362057     1.09200
C314        C  0.77173593  0.29127735  0.97806102     1.09100
C315        C  0.77864136  0.29083503  0.03979447     1.09200
C316        C  0.71145071  0.24098809  0.95722857     1.09100
O317        O  0.72377333  0.18893460  0.98468481    -0.80500
O318        O  0.80414281  0.22502071  0.02983364    -0.80600
O319        O  0.74719063  0.21237892  0.05259695    -0.80500
O320        O  0.78006021  0.24693930  0.95335356    -0.80500
O321        O  0.80124009  0.22725513  0.98026511    -0.80600
O322        O  0.75937194  0.19400910  0.01892916    -0.80500
O323        O  0.75243859  0.20780416  0.96428637    -0.80500
O324        O  0.78436860  0.24263892  0.05962264    -0.80600
Co325      Co  0.73915466  0.21589970  0.99921272     1.51500
Co326      Co  0.79618819  0.25105567  0.00669849     1.51700
Co327      Co  0.75118598  0.24787329  0.04477004     1.51600
Co328      Co  0.75007609  0.24516167  0.97375152     1.51500
O329        O  0.76084652  0.24275835  0.00905822    -1.42400
C330        C  0.73850661  0.18907166  0.96722197     1.09100
C331        C  0.80110002  0.22852725  0.05231452     1.09200
C332        C  0.75503843  0.19355334  0.04154942     1.09100
C333        C  0.79902888  0.23512375  0.95882626     1.09100
O334        O  0.02425254  0.76747614  0.71462370    -0.80500
O335        O  0.97635965  0.72133006  0.79705142    -0.80500
O336        O  0.02561817  0.71608970  0.75021975    -0.80500
O337        O  0.96818416  0.75080705  0.71859474    -0.80500
O338        O  0.02384532  0.71847231  0.79052873    -0.80600
O339        O  0.98108845  0.78841450  0.71736926    -0.80500
O340        O  0.96588606  0.71696390  0.75823576    -0.80500
O341        O  0.05761894  0.74874223  0.72762329    -0.80500
C342        C  0.04600625  0.75946433  0.71061702     1.09200
C343        C  0.96783624  0.70835942  0.77971675     1.09100
C344        C  0.02726277  0.70614055  0.77116172     1.09200
C345        C  0.97077532  0.77061602  0.70702110     1.09100
O346        O  0.98704873  0.80615742  0.76546221    -0.80500
O347        O  0.02946714  0.77018043  0.80181306    -0.80600
O348        O  0.04296762  0.78795818  0.75254123    -0.80500
O349        O  0.94903816  0.75587051  0.78858320    -0.80500
O350        O  0.98013826  0.77307244  0.80686056    -0.80600
O351        O  0.02148652  0.81412296  0.73048364    -0.80500
O352        O  0.95315110  0.78844759  0.75282168    -0.80500
O353        O  0.05354087  0.74976721  0.77804078    -0.80600
Co354      Co  0.00643649  0.78586118  0.74312708     1.51500
Co355      Co  0.00231338  0.74706080  0.79735029     1.51700
Co356      Co  0.03090021  0.75181024  0.74926848     1.51600
Co357      Co  0.96150437  0.75268029  0.75436890     1.51500
O358        O  0.99756581  0.75694923  0.76253443    -1.42400
C359        C  0.96425700  0.80684093  0.76169326     1.09100
C360        C  0.05060842  0.76301424  0.79670497     1.09200
C361        C  0.04061912  0.80899810  0.74240668     1.09100
C362        C  0.95782414  0.76817210  0.80617530     1.09100
O363        O  0.80570549  0.02555370  0.72103443    -0.80500
O364        O  0.75561941  0.97475115  0.79962109    -0.80500
O365        O  0.77257059  0.02883150  0.79588299    -0.80500
O366        O  0.79853974  0.97465679  0.76875717    -0.80500
O367        O  0.73486402  0.01955707  0.80050476    -0.80600
O368        O  0.80652607  0.97661176  0.72956006    -0.80500
O369        O  0.76508164  0.94063127  0.78088057    -0.80500
O370        O  0.80464313  0.03291995  0.76013829    -0.80500
C371        C  0.81528144  0.03449491  0.74005243     1.09200
C372        C  0.76236443  0.95225084  0.80044568     1.09100
C373        C  0.75389337  0.02945510  0.80877592     1.09200
C374        C  0.81294108  0.97105114  0.75133142     1.09100
O375        O  0.75666623  0.97417836  0.70859556    -0.80500
O376        O  0.71499051  0.01526303  0.75272982    -0.80600
O377        O  0.76854840  0.05381584  0.72754283    -0.80500
O378        O  0.72707589  0.96027536  0.75690547    -0.80500
O379        O  0.70851357  0.98005249  0.78661233    -0.80600
O380        O  0.75666995  0.02344702  0.70427275    -0.80500
O381        O  0.77110500  0.94805768  0.73379248    -0.80500
O382        O  0.73379650  0.04856981  0.76445501    -0.80600
Co383      Co  0.77988118  0.99989361  0.71769647     1.51500
Co384      Co  0.73612199  0.99480747  0.77326765     1.51700
Co385      Co  0.76956455  0.03893960  0.76158009     1.51600
Co386      Co  0.76377874  0.96949537  0.76268283     1.51500
O387        O  0.76360445  0.00407695  0.75098211    -1.42400
C388        C  0.76428102  0.95304864  0.71241150     1.09100
C389        C  0.71409075  0.03733753  0.75922069     1.09200
C390        C  0.76205741  0.04561044  0.70670486     1.09100
C391        C  0.70868331  0.96280084  0.77137690     1.09100
O392        O  0.76060088  0.80366914  0.02906490    -0.80500
O393        O  0.81733596  0.73695080  0.98704271    -0.80500
O394        O  0.78160135  0.75008534  0.05238995    -0.80500
O395        O  0.75085442  0.77774447  0.95053676    -0.80500
O396        O  0.80022373  0.76819765  0.02181723    -0.80600
O397        O  0.76427182  0.80227733  0.97885133    -0.80500
O398        O  0.79070457  0.75697418  0.96406717    -0.80500
O399        O  0.74360865  0.77959964  0.05589041    -0.80500
C400        C  0.75385673  0.79957698  0.05062570     1.09200
C401        C  0.81274508  0.75051847  0.96897351     1.09100
C402        C  0.79853489  0.76368294  0.04442769     1.09200
C403        C  0.76065575  0.79771542  0.95655046     1.09100
O404        O  0.71477959  0.78333453  0.97671593    -0.80500
O405        O  0.79002930  0.71772888  0.02274702    -0.80600
O406        O  0.71215168  0.74576438  0.03198524    -0.80500
O407        O  0.75707869  0.72839641  0.94250803    -0.80500
O408        O  0.77401274  0.71512383  0.97692650    -0.80600
O409        O  0.71161670  0.78542801  0.02474790    -0.80500
O410        O  0.71852954  0.74354436  0.97144609    -0.80500
O411        O  0.75159723  0.71194749  0.03057227    -0.80600
Co412      Co  0.73935752  0.79209601  0.00248240     1.51500
Co413      Co  0.78595142  0.74437889  0.99890774     1.51700
Co414      Co  0.74720149  0.74679071  0.04016864     1.51600
Co415      Co  0.75436458  0.74781733  0.97096474     1.51500
O416        O  0.75378517  0.75877670  0.00561301    -1.42400
C417        C  0.70600187  0.76298144  0.96989966     1.09100
C418        C  0.77316143  0.70383572  0.02954569     1.09200
C419        C  0.70095199  0.76598428  0.03130543     1.09100
C420        C  0.76747412  0.71149614  0.95445100     1.09100
C421        C  0.76713698  0.81570412  0.93777318    -0.03600
C422        C  0.76562338  0.80964720  0.91296103    -0.06200
C423        C  0.77017018  0.82711174  0.89518417    -0.21300
C424        C  0.77590755  0.85102880  0.90183785     0.24500
C425        C  0.77847829  0.85686273  0.92664011    -0.18800
C426        C  0.77417272  0.83932276  0.94444093    -0.08800
C427        C  0.77868620  0.86938492  0.88240980    -0.19100
C428        C  0.77341811  0.89307461  0.88552440    -0.23900
C429        C  0.77310661  0.91037704  0.86489130     0.26500
C430        C  0.75648664  0.92974330  0.86490976    -0.20600
C431        C  0.75382487  0.94453274  0.84434780    -0.10300
C432        C  0.76775439  0.94001015  0.82357174    -0.10800
C433        C  0.78546648  0.92171561  0.82416336    -0.03800
C434        C  0.78830839  0.90718538  0.84470738    -0.18900
H435        H  0.76060161  0.79149311  0.90727486     0.10200
H436        H  0.76844436  0.82211153  0.87616357     0.10300
H437        H  0.78371724  0.87493193  0.93234583     0.10000
H438        H  0.77582390  0.84441469  0.96343087     0.11100
H439        H  0.78283001  0.86266411  0.86431367     0.11200
H440        H  0.76671874  0.89942414  0.90295048     0.13100
H441        H  0.74477591  0.93270333  0.88039033     0.09600
H442        H  0.74003690  0.95856024  0.84418813     0.11700
H443        H  0.79672814  0.91825243  0.80844160     0.08300
H444        H  0.80203594  0.89312964  0.84449562     0.11000
C445        C  0.83208013  0.75957887  0.95314628    -0.03600
C446        C  0.82694616  0.77900398  0.93740480    -0.06200
C447        C  0.84341244  0.78582110  0.91971907    -0.21300
C448        C  0.86547856  0.77356084  0.91755256     0.24500
C449        C  0.87142372  0.75502091  0.93421669    -0.18800
C450        C  0.85477640  0.74811866  0.95201737    -0.08800
C451        C  0.88008146  0.77841897  0.89579162    -0.19100
C452        C  0.90393306  0.77417848  0.89453415    -0.23900
C453        C  0.91665299  0.77561409  0.87110799     0.26500
C454        C  0.94067590  0.78370253  0.87055611    -0.20600
C455        C  0.95362950  0.78300032  0.84885163    -0.10300
C456        C  0.94284056  0.77364170  0.82752728    -0.10800
C457        C  0.91846039  0.76642317  0.82792787    -0.03800
C458        C  0.90548191  0.76734183  0.84954454    -0.18900
H459        H  0.80977478  0.78842381  0.93813047     0.10200
H460        H  0.83849424  0.80013541  0.90708646     0.10300
H461        H  0.88817344  0.74489341  0.93265341     0.10000
H462        H  0.85910568  0.73307264  0.96395839     0.11100
H463        H  0.87058798  0.78542152  0.87985209     0.11200
H464        H  0.91427492  0.76948299  0.91076632     0.13100
H465        H  0.94954499  0.79008417  0.88702521     0.09600
H466        H  0.97244431  0.78864461  0.84908468     0.11700
H467        H  0.90974212  0.75897580  0.81183925     0.08300
H468        H  0.88709031  0.76045304  0.84959812     0.11000
C469        C  0.83554039  0.95703291  0.75640032    -0.03600
C470        C  0.84085301  0.94964068  0.78041220    -0.06200
C471        C  0.85879167  0.93228030  0.78512706    -0.21300
C472        C  0.87228463  0.92216806  0.76609792     0.24500
C473        C  0.86812231  0.93061482  0.74221160    -0.18800
C474        C  0.84987854  0.94783746  0.73741705    -0.08800
C475        C  0.88846136  0.90110548  0.77147114    -0.19100
C476        C  0.90820624  0.89546996  0.75831084    -0.23900
C477        C  0.92288647  0.87312610  0.76261074     0.26500
C478        C  0.94786671  0.87345500  0.75778709    -0.20600
C479        C  0.96170380  0.85213628  0.75921535    -0.10300
C480        C  0.95066863  0.82986842  0.76476782    -0.10800
C481        C  0.92576234  0.82957170  0.77013298    -0.03800
C482        C  0.91204382  0.85101325  0.76931644    -0.18900
H483        H  0.83023525  0.95627815  0.79555067     0.10200
H484        H  0.86158195  0.92612278  0.80366713     0.10300
H485        H  0.87789448  0.92290304  0.72703238     0.10000
H486        H  0.84614253  0.95293315  0.71872478     0.11100
H487        H  0.88399821  0.88992787  0.78709710     0.11200
H488        H  0.91414152  0.90780021  0.74414359     0.13100
H489        H  0.95660460  0.89019244  0.75240245     0.09600
H490        H  0.98076883  0.85283564  0.75462093     0.11700
H491        H  0.91677355  0.81261234  0.77428706     0.08300
H492        H  0.89274289  0.85001166  0.77269312     0.11000
C493        C  0.73996065  0.16759330  0.95099136    -0.03600
C494        C  0.72459226  0.14764104  0.95494919    -0.06200
C495        C  0.72478657  0.12770825  0.93923955    -0.21300
C496        C  0.74048514  0.12699364  0.91929544     0.24500
C497        C  0.75612700  0.14684761  0.91538463    -0.18800
C498        C  0.75586332  0.16693850  0.93112093    -0.08800
C499        C  0.73885906  0.10590978  0.90234037    -0.19100
C500        C  0.75710143  0.09883313  0.88777569    -0.23900
C501        C  0.75538077  0.07851584  0.86983223     0.26500
C502        C  0.77693780  0.06979101  0.85958923    -0.20600
C503        C  0.77638379  0.05271765  0.84078262    -0.10300
C504        C  0.75419243  0.04390856  0.83159109    -0.10800
C505        C  0.73256687  0.05171332  0.84250068    -0.03800
C506        C  0.73310953  0.06891383  0.86138012    -0.18900
H507        H  0.71208159  0.14752477  0.97006007     0.10200
H508        H  0.71246787  0.11279445  0.94262465     0.10300
H509        H  0.76804571  0.14731256  0.89983891     0.10000
H510        H  0.76779328  0.18210123  0.92749975     0.11100
H511        H  0.72218330  0.09548995  0.90260535     0.11200
H512        H  0.77440679  0.10814498  0.88917542     0.13100
H513        H  0.79433571  0.07676396  0.86566440     0.09600
H514        H  0.79340126  0.04710518  0.83278590     0.11700
H515        H  0.71518599  0.04550771  0.83559889     0.08300
H516        H  0.71599150  0.07536349  0.86835690     0.11000
C517        C  0.74296029  0.05190901  0.17454726    -0.03600
C518        C  0.76679278  0.05977141  0.17030858    -0.06200
C519        C  0.77197636  0.07461070  0.15061339    -0.21300
C520        C  0.75353047  0.08182168  0.13456521     0.24500
C521        C  0.72978682  0.07299158  0.13796317    -0.18800
C522        C  0.72455738  0.05799151  0.15786367    -0.08800
C523        C  0.75932752  0.10101691  0.11680034    -0.19100
C524        C  0.74644177  0.10551559  0.09649656    -0.23900
C525        C  0.75104722  0.12761918  0.08202914     0.26500
C526        C  0.74848156  0.12712553  0.05662042    -0.20600
C527        C  0.75139186  0.14841061  0.04308307    -0.10300
C528        C  0.75627184  0.17052470  0.05493109    -0.10800
C529        C  0.75918058  0.17089292  0.08028927    -0.03800
C530        C  0.75664595  0.14966459  0.09371281    -0.18900
H531        H  0.78136900  0.05515038  0.18280716     0.10200
H532        H  0.79034195  0.08124090  0.14844116     0.10300
H533        H  0.71503405  0.07872557  0.12619940     0.10000
H534        H  0.70601620  0.05236742  0.16098908     0.11100
H535        H  0.77487727  0.11245714  0.12100070     0.11200
H536        H  0.73230832  0.09311267  0.09051063     0.13100
H537        H  0.74395203  0.11035943  0.04733132     0.09600
H538        H  0.74864265  0.14780841  0.02353664     0.11700
H539        H  0.76271090  0.18777227  0.08981978     0.08300
H540        H  0.75808795  0.15074075  0.11335588     0.11000
C541        C  0.75522075  0.81899387  0.06917004    -0.03600
C542        C  0.74437155  0.81552605  0.09195949    -0.06200
C543        C  0.74188297  0.83486111  0.10813940    -0.21300
C544        C  0.75043446  0.85802049  0.10210346     0.24500
C545        C  0.76245551  0.86129258  0.07981800    -0.18800
C546        C  0.76483765  0.84190813  0.06350882    -0.08800
C547        C  0.74493698  0.87837373  0.11888003    -0.19100
C548        C  0.75724452  0.89940620  0.11950868    -0.23900
C549        C  0.75178327  0.91816910  0.13796439     0.26500
C550        C  0.77104677  0.92965543  0.15004903    -0.20600
C551        C  0.76652059  0.94527028  0.16951055    -0.10300
C552        C  0.74260159  0.95025249  0.17671920    -0.10800
C553        C  0.72321670  0.94001402  0.16363360    -0.03800
C554        C  0.72777679  0.92388732  0.14447860    -0.18900
H555        H  0.73681685  0.79809703  0.09692348     0.10200
H556        H  0.73266135  0.83183703  0.12522169     0.10300
H557        H  0.76901505  0.87894550  0.07436342     0.10000
H558        H  0.77328035  0.84512926  0.04606680     0.11100
H559        H  0.73072034  0.87543979  0.13217173     0.11200
H560        H  0.77309631  0.90192516  0.10819589     0.13100
H561        H  0.78963966  0.92559788  0.14521720     0.09600
H562        H  0.78176524  0.95301221  0.17937167     0.11700
H563        H  0.70466146  0.94349191  0.16900871     0.08300
H564        H  0.71259620  0.91554031  0.13506750     0.11000
C565        C  0.23183794  0.06346668  0.18431836    -0.03600
C566        C  0.24105570  0.08658841  0.18992963    -0.06200
C567        C  0.23689192  0.10614990  0.17442811    -0.21300
C568        C  0.22344440  0.10323155  0.15284823     0.24500
C569        C  0.21333924  0.08026031  0.14762779    -0.18800
C570        C  0.21758581  0.06055762  0.16322553    -0.08800
C571        C  0.22155206  0.12453409  0.13628159    -0.19100
C572        C  0.21269105  0.12385258  0.11335542    -0.23900
C573        C  0.21470549  0.14457688  0.09609815     0.26500
C574        C  0.21303489  0.13979241  0.07102811    -0.20600
C575        C  0.21747444  0.15807504  0.05402806    -0.10300
C576        C  0.22379711  0.18154544  0.06178671    -0.10800
C577        C  0.22403028  0.18677272  0.08679867    -0.03800
C578        C  0.21929090  0.16857557  0.10379990    -0.18900
H579        H  0.25193724  0.08956092  0.20616287     0.10200
H580        H  0.24474989  0.12357923  0.17910133     0.10300
H581        H  0.20237787  0.07716599  0.13155363     0.10000
H582        H  0.21001098  0.04300323  0.15860281     0.11100
H583        H  0.22975540  0.14116268  0.14291553     0.11200
H584        H  0.20566949  0.10699050  0.10601240     0.13100
H585        H  0.20922098  0.12160256  0.06453996     0.09600
H586        H  0.21706074  0.15353023  0.03483826     0.11700
H587        H  0.22836964  0.20485371  0.09325669     0.08300
H588        H  0.21960199  0.17347927  0.12284994     0.11000
C589        C  0.04656378  0.24372823  0.16142556    -0.03600
C590        C  0.06455409  0.22595152  0.16494581    -0.06200
C591        C  0.08178794  0.22139055  0.14707524    -0.21300
C592        C  0.08162645  0.23442534  0.12516521     0.24500
C593        C  0.06292399  0.25146247  0.12102008    -0.18800
C594        C  0.04549556  0.25599992  0.13901294    -0.08800
C595        C  0.10282256  0.23134618  0.10879543    -0.19100
C596        C  0.10468476  0.24040838  0.08612499    -0.23900
C597        C  0.12802141  0.23961719  0.07269484     0.26500
C598        C  0.12800056  0.23768947  0.04720938    -0.20600
C599        C  0.14988156  0.23790631  0.03434143    -0.10300
C600        C  0.17215432  0.24059754  0.04673603    -0.10800
C601        C  0.17211405  0.24258271  0.07222465    -0.03800
C602        C  0.15034698  0.24209747  0.08505102    -0.18900
H603        H  0.06585616  0.21601077  0.18191060     0.10200
H604        H  0.09589868  0.20816735  0.15081094     0.10300
H605        H  0.06225534  0.26212097  0.10452317     0.10000
H606        H  0.03188342  0.26984582  0.13581431     0.11100
H607        H  0.11824028  0.22146536  0.11626282     0.11200
H608        H  0.08908403  0.24852120  0.07714219     0.13100
H609        H  0.11103515  0.23608382  0.03726094     0.09600
H610        H  0.14931489  0.23671611  0.01465832     0.11700
H611        H  0.18893448  0.24492434  0.08227910     0.08300
H612        H  0.15102335  0.24444856  0.10461142     0.11000
C613        C  0.93458793  0.22901827  0.18761910    -0.03600
C614        C  0.91041580  0.23232603  0.19493696    -0.06200
C615        C  0.89137710  0.22214832  0.18161930    -0.21300
C616        C  0.89596539  0.20896573  0.16033620     0.24500
C617        C  0.92018185  0.20462263  0.15354012    -0.18800
C618        C  0.93934364  0.21454199  0.16713425    -0.08800
C619        C  0.87496707  0.20224190  0.14473034    -0.19100
C620        C  0.87627765  0.20244330  0.12028196    -0.23900
C621        C  0.85487113  0.20438923  0.10376898     0.26500
C622        C  0.85869365  0.20186118  0.07866730    -0.20600
C623        C  0.84066017  0.20838424  0.06193640    -0.10300
C624        C  0.81843703  0.21785226  0.06996876    -0.10800
C625        C  0.81391427  0.21886949  0.09506890    -0.03800
C626        C  0.83191709  0.21220236  0.11184730    -0.18900
H627        H  0.90613709  0.24285897  0.21100659     0.10200
H628        H  0.87291877  0.22551854  0.18739233     0.10300
H629        H  0.92437258  0.19384172  0.13763671     0.10000
H630        H  0.95780858  0.21120810  0.16140378     0.11100
H631        H  0.85750362  0.20070645  0.15353724     0.11200
H632        H  0.89390841  0.20411128  0.11177216     0.13100
H633        H  0.87615412  0.19594853  0.07191498     0.09600
H634        H  0.84466118  0.20725072  0.04269267     0.11700
H635        H  0.79682905  0.22583418  0.10176526     0.08300
H636        H  0.82809859  0.21475245  0.13093913     0.11000
C637        C  0.81102591  0.06999215  0.22756153    -0.03600
C638        C  0.83188356  0.06363575  0.21446583    -0.06200
C639        C  0.84869666  0.08136942  0.20792297    -0.21300
C640        C  0.84501654  0.10579113  0.21426516     0.24500
C641        C  0.82313742  0.11230809  0.22574631    -0.18800
C642        C  0.80636352  0.09457080  0.23227502    -0.08800
C643        C  0.86575402  0.12287489  0.21177403    -0.19100
C644        C  0.86449789  0.14674121  0.21693029    -0.23900
C645        C  0.88621885  0.16187493  0.22185519     0.26500
C646        C  0.88375063  0.18161538  0.23779177    -0.20600
C647        C  0.90389935  0.19528395  0.24478406    -0.10300
C648        C  0.92700207  0.18964977  0.23578047    -0.10800
C649        C  0.92944700  0.17031849  0.21924150    -0.03800
C650        C  0.90923980  0.15657625  0.21226256    -0.18900
H651        H  0.83574547  0.04484227  0.21015684     0.10200
H652        H  0.86522844  0.07579343  0.19893355     0.10300
H653        H  0.81921228  0.13073805  0.23108387     0.10000
H654        H  0.79021293  0.10005066  0.24197821     0.11100
H655        H  0.88331789  0.11474035  0.20824186     0.11200
H656        H  0.84713057  0.15514734  0.22053122     0.13100
H657        H  0.86622057  0.18611781  0.24538232     0.09600
H658        H  0.90136898  0.21021618  0.25735897     0.11700
H659        H  0.94696161  0.16587191  0.21160368     0.08300
H660        H  0.91175840  0.14197869  0.19934526     0.11000
C661        C  0.05705244  0.17852789  0.22923084    -0.03600
C662        C  0.04711914  0.15595323  0.22257415    -0.06200
C663        C  0.06154852  0.13513309  0.22256671    -0.21300
C664        C  0.08617484  0.13657763  0.22882859     0.24500
C665        C  0.09628491  0.15931443  0.23472365    -0.18800
C666        C  0.08185755  0.18009301  0.23482548    -0.08800
C667        C  0.10045263  0.11396008  0.23105285    -0.19100
C668        C  0.12458802  0.11365199  0.22814371    -0.23900
C669        C  0.14001237  0.09230706  0.23330375     0.26500
C670        C  0.16330707  0.09188887  0.22339307    -0.20600
C671        C  0.17950446  0.07352783  0.22957491    -0.10300
C672        C  0.17279624  0.05510315  0.24587500    -0.10800
C673        C  0.14931271  0.05517936  0.25554453    -0.03800
C674        C  0.13302766  0.07371224  0.24939435    -0.18900
H675        H  0.02798243  0.15417925  0.21833199     0.10200
H676        H  0.05336410  0.11778968  0.21815519     0.10300
H677        H  0.11503849  0.16101348  0.24041742     0.10000
H678        H  0.08992026  0.19719236  0.24029042     0.11100
H679        H  0.09078959  0.09731655  0.23512512     0.11200
H680        H  0.13364936  0.12987439  0.22165301     0.13100
H681        H  0.16917526  0.10608413  0.21113353     0.09600
H682        H  0.19747737  0.07407530  0.22183485     0.11700
H683        H  0.14372965  0.04127429  0.26824096     0.08300
H684        H  0.11542331  0.07382939  0.25795159     0.11000
C685        C  0.22316339  0.92925466  0.18171127    -0.03600
C686        C  0.21022536  0.93541934  0.16048282    -0.06200
C687        C  0.20451534  0.91762487  0.14319045    -0.21300
C688        C  0.21135704  0.89333730  0.14689503     0.24500
C689        C  0.22352130  0.88706302  0.16859118    -0.18800
C690        C  0.22930593  0.90481967  0.18577322    -0.08800
C691        C  0.20856783  0.87585478  0.12650118    -0.19100
C692        C  0.20935807  0.85155014  0.12928692    -0.23900
C693        C  0.21361733  0.83474390  0.10860303     0.26500
C694        C  0.22585590  0.81282123  0.11312628    -0.20600
C695        C  0.23412688  0.79852491  0.09383511    -0.10300
C696        C  0.22999793  0.80578845  0.06965986    -0.10800
C697        C  0.21604105  0.82669227  0.06518037    -0.03800
C698        C  0.20782167  0.84097165  0.08442804    -0.18900
H699        H  0.20523835  0.95408744  0.15683540     0.10200
H700        H  0.19536812  0.92296730  0.12650955     0.10300
H701        H  0.22984678  0.86877702  0.17189562     0.10000
H702        H  0.23936948  0.89946459  0.20190878     0.11100
H703        H  0.20800793  0.88363756  0.10838533     0.11200
H704        H  0.20981601  0.84383083  0.14744421     0.13100
H705        H  0.23016957  0.80738514  0.13160907     0.09600
H706        H  0.24434522  0.78219540  0.09784500     0.11700
H707        H  0.21195987  0.83240583  0.04673895     0.08300
H708        H  0.19741550  0.85708987  0.08019226     0.11000
C709        C  0.18345875  0.77369537  0.94183551    -0.03600
C710        C  0.15901611  0.77441612  0.94875358    -0.06200
C711        C  0.14081412  0.77873751  0.93128970    -0.21300
C712        C  0.14673148  0.78252988  0.90669557     0.24500
C713        C  0.17137295  0.78362776  0.90027985    -0.18800
C714        C  0.18944907  0.77897562  0.91759201    -0.08800
C715        C  0.12682322  0.78424349  0.88822416    -0.19100
C716        C  0.12996888  0.77921235  0.86436473    -0.23900
C717        C  0.10974412  0.77721525  0.84635391     0.26500
C718        C  0.11333245  0.76312391  0.82534163    -0.20600
C719        C  0.09434993  0.75909231  0.80880999    -0.10300
C720        C  0.07133997  0.76921946  0.81285059    -0.10800
C721        C  0.06804034  0.78434996  0.83321006    -0.03800
C722        C  0.08704627  0.78839205  0.84975772    -0.18900
H723        H  0.15391166  0.77036779  0.96731422     0.10200
H724        H  0.12200403  0.77812151  0.93683232     0.10300
H725        H  0.17689044  0.78763365  0.88187150     0.10000
H726        H  0.20820986  0.77892081  0.91186033     0.11100
H727        H  0.10865407  0.78742344  0.89499683     0.11200
H728        H  0.14779161  0.77394648  0.85799344     0.13100
H729        H  0.13070738  0.75454503  0.82208037     0.09600
H730        H  0.09753447  0.74750151  0.79320967     0.11700
H731        H  0.05060739  0.79273399  0.83662022     0.08300
H732        H  0.08378531  0.80012433  0.86519200     0.11000
C733        C  0.81637921  0.93926873  0.23904212    -0.03600
C734        C  0.83593181  0.94433927  0.22358983    -0.06200
C735        C  0.85651542  0.92958396  0.22395920    -0.21300
C736        C  0.85767837  0.90959915  0.23964766     0.24500
C737        C  0.83778796  0.90420391  0.25457371    -0.18800
C738        C  0.81723984  0.91878181  0.25408183    -0.08800
C739        C  0.88013796  0.89520540  0.24120710    -0.19100
C740        C  0.87945563  0.87152294  0.24645043    -0.23900
C741        C  0.90134144  0.85661656  0.24898064     0.26500
C742        C  0.90000545  0.83249788  0.24139939    -0.20600
C743        C  0.91977730  0.81725938  0.24443872    -0.10300
C744        C  0.94122762  0.82572185  0.25559304    -0.10800
C745        C  0.94261319  0.84994451  0.26338706    -0.03800
C746        C  0.92273424  0.86541356  0.25998528    -0.18900
H747        H  0.83561618  0.96010681  0.21183021     0.10200
H748        H  0.87168063  0.93398474  0.21233397     0.10300
H749        H  0.83841693  0.88934884  0.26743807     0.10000
H750        H  0.80258125  0.91474007  0.26646465     0.11100
H751        H  0.89733533  0.90398087  0.23734853     0.11200
H752        H  0.86210122  0.86226437  0.24762195     0.13100
H753        H  0.88357397  0.82541225  0.23309397     0.09600
H754        H  0.91797380  0.79862689  0.23838107     0.11700
H755        H  0.95883788  0.85678890  0.27225085     0.08300
H756        H  0.92383048  0.88393148  0.26652451     0.11000
C757        C  0.17516021  0.94167601  0.23182425    -0.03600
C758        C  0.18108673  0.91723424  0.22774989    -0.06200
C759        C  0.16318463  0.90027836  0.22228804    -0.21300
C760        C  0.13867322  0.90701668  0.22146282     0.24500
C761        C  0.13254919  0.93165145  0.22500075    -0.18800
C762        C  0.15076250  0.94892508  0.22991248    -0.08800
C763        C  0.12063915  0.88720532  0.21796197    -0.19100
C764        C  0.09720910  0.88816861  0.22472967    -0.23900
C765        C  0.08206315  0.86583198  0.22634236     0.26500
C766        C  0.05675384  0.86722346  0.22338259    -0.20600
C767        C  0.04215336  0.84668747  0.22706725    -0.10300
C768        C  0.05262514  0.82449426  0.23423265    -0.10800
C769        C  0.07798292  0.82306690  0.23667468    -0.03800
C770        C  0.09248129  0.84342125  0.23289924    -0.18900
H771        H  0.19970256  0.91106880  0.22915199     0.10200
H772        H  0.16851492  0.88153080  0.21958824     0.10300
H773        H  0.11386748  0.93762023  0.22413876     0.10000
H774        H  0.14572682  0.96766278  0.23308484     0.11100
H775        H  0.12773453  0.87000536  0.21141928     0.11200
H776        H  0.08922933  0.90518526  0.23059277     0.13100
H777        H  0.04825721  0.88430873  0.21857258     0.09600
H778        H  0.02266094  0.84839412  0.22511831     0.11700
H779        H  0.08668530  0.80630697  0.24222737     0.08300
H780        H  0.11178427  0.84171303  0.23620683     0.11000
C781        C  0.93068287  0.76605836  0.19015079    -0.03600
C782        C  0.90680507  0.75926680  0.19560108    -0.06200
C783        C  0.88806984  0.76307718  0.17871156    -0.21300
C784        C  0.89266870  0.77369698  0.15592317     0.24500
C785        C  0.91651683  0.78118584  0.15077731    -0.18800
C786        C  0.93524619  0.77739704  0.16771281    -0.08800
C787        C  0.87220691  0.77528824  0.13801173    -0.19100
C788        C  0.87374054  0.78416741  0.11512404    -0.23900
C789        C  0.85349992  0.78226691  0.09701855     0.26500
C790        C  0.85885465  0.78262450  0.07200662    -0.20600
C791        C  0.84075219  0.77788729  0.05456671    -0.10300
C792        C  0.81698142  0.77264533  0.06191015    -0.10800
C793        C  0.81126805  0.77406302  0.08674001    -0.03800
C794        C  0.82921267  0.77905952  0.10407708    -0.18900
H795        H  0.90264615  0.75058610  0.21275124     0.10200
H796        H  0.86992634  0.75719149  0.18331350     0.10300
H797        H  0.92112622  0.78953648  0.13366174     0.10000
H798        H  0.95346841  0.78289142  0.16296187     0.11100
H799        H  0.85528079  0.76721292  0.14378707     0.11200
H800        H  0.89075573  0.79135072  0.10857079     0.13100
H801        H  0.87730105  0.78550757  0.06598783     0.09600
H802        H  0.84560474  0.77710678  0.03550639     0.11700
H803        H  0.79291635  0.77076741  0.09284519     0.08300
H804        H  0.82391142  0.77997564  0.12296256     0.11000
C805        C  0.06002757  0.76720711  0.17817113    -0.03600
C806        C  0.05066723  0.77670679  0.15626396    -0.06200
C807        C  0.06492182  0.77714048  0.13534034    -0.21300
C808        C  0.08877451  0.76834234  0.13603233     0.24500
C809        C  0.09824391  0.75932279  0.15812174    -0.18800
C810        C  0.08407793  0.75895266  0.17897037    -0.08800
C811        C  0.10282073  0.76691500  0.11320971    -0.19100
C812        C  0.12717236  0.76704194  0.11343921    -0.23900
C813        C  0.14273582  0.76185000  0.09220654     0.26500
C814        C  0.16783020  0.76285587  0.09605540    -0.20600
C815        C  0.18370616  0.75681462  0.07755797    -0.10300
C816        C  0.17496703  0.74980480  0.05450436    -0.10800
C817        C  0.14985727  0.74870256  0.05040559    -0.03800
C818        C  0.13377712  0.75464549  0.06915484    -0.18900
H819        H  0.03207211  0.78297875  0.15504236     0.10200
H820        H  0.05717202  0.78391688  0.11848209     0.10300
H821        H  0.11620023  0.75144898  0.15922616     0.10000
H822        H  0.09167406  0.75118620  0.19545575     0.11100
H823        H  0.09276768  0.76537516  0.09625527     0.11200
H824        H  0.13652178  0.77062520  0.13054090     0.13100
H825        H  0.17529217  0.76805648  0.11361752     0.09600
H826        H  0.20296751  0.75749380  0.08148531     0.11700
H827        H  0.14270060  0.74335632  0.03278537     0.08300
H828        H  0.11456314  0.75327940  0.06544422     0.11000
C829        C  0.94208161  0.25212786  0.82339169    -0.03600
C830        C  0.92248195  0.23715755  0.81656883    -0.06200
C831        C  0.90372491  0.23238005  0.83271531    -0.21300
C832        C  0.90412924  0.24202963  0.85629250     0.24500
C833        C  0.92410158  0.25634177  0.86361827    -0.18800
C834        C  0.94290852  0.26140974  0.84723334    -0.08800
C835        C  0.88242645  0.23828453  0.87172991    -0.19100
C836        C  0.88284622  0.23848485  0.89620869    -0.23900
C837        C  0.86053540  0.23550410  0.91101302     0.26500
C838        C  0.86250680  0.22581773  0.93454429    -0.20600
C839        C  0.84218856  0.22441866  0.94959518    -0.10300
C840        C  0.81947794  0.23307846  0.94156458    -0.10800
C841        C  0.81735593  0.24226014  0.91779822    -0.03800
C842        C  0.83764042  0.24346435  0.90266815    -0.18900
H843        H  0.92117344  0.22959669  0.79839080     0.10200
H844        H  0.88858461  0.22136069  0.82659185     0.10300
H845        H  0.92476670  0.26443101  0.88157106     0.10000
H846        H  0.95772841  0.27300468  0.85300456     0.11100
H847        H  0.86546800  0.23430283  0.86235790     0.11200
H848        H  0.90009412  0.24008385  0.90576013     0.13100
H849        H  0.87991541  0.21965591  0.94144270     0.09600
H850        H  0.84449988  0.21741283  0.96788268     0.11700
H851        H  0.80018568  0.24930589  0.91117152     0.08300
H852        H  0.83549770  0.25160846  0.88486823     0.11000
C853        C  0.17297975  0.25027678  0.93904960    -0.03600
C854        C  0.17957184  0.23724414  0.91810973    -0.06200
C855        C  0.16247223  0.23193401  0.90018422    -0.21300
C856        C  0.13833904  0.23935352  0.90276691     0.24500
C857        C  0.13144320  0.25188876  0.92401070    -0.18800
C858        C  0.14868951  0.25727917  0.94205053    -0.08800
C859        C  0.12190574  0.23605563  0.88165763    -0.19100
C860        C  0.09763026  0.23771631  0.88261985    -0.23900
C861        C  0.08275940  0.23887379  0.86013149     0.26500
C862        C  0.05875159  0.23048056  0.86022003    -0.20600
C863        C  0.04404323  0.23310842  0.83951896    -0.10300
C864        C  0.05312598  0.24446210  0.81857058    -0.10800
C865        C  0.07726013  0.25251151  0.81845768    -0.03800
C866        C  0.09185008  0.24991484  0.83901879    -0.18900
H867        H  0.19815239  0.23160900  0.91520611     0.10200
H868        H  0.16827938  0.22246246  0.88392593     0.10300
H869        H  0.11309889  0.25840330  0.92637323     0.10000
H870        H  0.14313062  0.26725722  0.95807816     0.11100
H871        H  0.13042515  0.23265473  0.86419671     0.11200
H872        H  0.08844940  0.23865310  0.90000599     0.13100
H873        H  0.05133762  0.22212944  0.87637925     0.09600
H874        H  0.02546036  0.22677903  0.84010839     0.11700
H875        H  0.08476458  0.26146947  0.80267097     0.08300
H876        H  0.10997613  0.25742301  0.83855663     0.11000
C877        C  0.83707507  0.04981607  0.73847419    -0.03600
C878        C  0.85087709  0.05468440  0.75947635    -0.06200
C879        C  0.86819918  0.07312635  0.75950325    -0.21300
C880        C  0.87170021  0.08740740  0.73857325     0.24500
C881        C  0.85908697  0.08133702  0.71710455    -0.18800
C882        C  0.84193851  0.06267611  0.71701545    -0.08800
C883        C  0.88743288  0.10927936  0.73852812    -0.19100
C884        C  0.89498943  0.12073164  0.75888930    -0.23900
C885        C  0.90951361  0.14322527  0.75812632     0.26500
C886        C  0.92767833  0.14689451  0.77573922    -0.20600
C887        C  0.94225729  0.16758515  0.77496109    -0.10300
C888        C  0.93837257  0.18525551  0.75696415    -0.10800
C889        C  0.91944089  0.18212806  0.74001667    -0.03800
C890        C  0.90520372  0.16120174  0.74048137    -0.18900
H891        H  0.84761800  0.04481037  0.77618347     0.10200
H892        H  0.87826103  0.07633062  0.77614220     0.10300
H893        H  0.86165716  0.09181194  0.70064388     0.10000
H894        H  0.83139468  0.05940872  0.70060930     0.11100
H895        H  0.89215030  0.11686807  0.72093735     0.11200
H896        H  0.89097798  0.11351482  0.77673988     0.13100
H897        H  0.93103966  0.13338096  0.78967567     0.09600
H898        H  0.95672873  0.16965838  0.78825028     0.11700
H899        H  0.91615687  0.19545752  0.72590635     0.08300
H900        H  0.89082023  0.15914764  0.72710895     0.11000
C901        C  0.24947426  0.94885828  0.82494138    -0.03600
C902        C  0.23325176  0.93042176  0.81782543    -0.06200
C903        C  0.22791906  0.91143478  0.83348589    -0.21300
C904        C  0.23841197  0.91053449  0.85669795     0.24500
C905        C  0.25414537  0.92929855  0.86423600    -0.18800
C906        C  0.25957989  0.94839409  0.84843603    -0.08800
C907        C  0.23415117  0.88866164  0.87151060    -0.19100
C908        C  0.23638880  0.88832509  0.89580540    -0.23900
C909        C  0.23492500  0.86565058  0.91002250     0.26500
C910        C  0.22905585  0.86709608  0.93472984    -0.20600
C911        C  0.23053887  0.84655927  0.94944465    -0.10300
C912        C  0.23837175  0.82429376  0.93973286    -0.10800
C913        C  0.24311235  0.82254868  0.91475278    -0.03800
C914        C  0.24146012  0.84304720  0.89999745    -0.18900
H915        H  0.22503467  0.93025385  0.79984864     0.10200
H916        H  0.21587445  0.89714538  0.82726755     0.10300
H917        H  0.26307184  0.92879674  0.88183149     0.10000
H918        H  0.27223851  0.96228578  0.85428321     0.11100
H919        H  0.22869656  0.87228261  0.86191921     0.11200
H920        H  0.23941073  0.90513962  0.90570111     0.13100
H921        H  0.22401871  0.88431249  0.94281236     0.09600
H922        H  0.22669738  0.84843467  0.96866630     0.11700
H923        H  0.24911702  0.80559197  0.90680363     0.08300
H924        H  0.24665969  0.84130655  0.88112753     0.11000
C925        C  0.22885738  0.18626857  0.92999300    -0.03600
C926        C  0.21611892  0.16475224  0.93500640    -0.06200
C927        C  0.21026391  0.14849655  0.91625822    -0.21300
C928        C  0.21693062  0.15360668  0.89214721     0.24500
C929        C  0.22848781  0.17568570  0.88704312    -0.18800
C930        C  0.23457486  0.19176014  0.90575714    -0.08800
C931        C  0.21327060  0.13616179  0.87187811    -0.19100
C932        C  0.21446667  0.11185411  0.87475484    -0.23900
C933        C  0.21782456  0.09435674  0.85425604     0.26500
C934        C  0.21881464  0.06932325  0.85939776    -0.20600
C935        C  0.22562772  0.05255686  0.84143850    -0.10300
C936        C  0.23189353  0.06064162  0.81810211    -0.10800
C937        C  0.22976302  0.08541540  0.81264590    -0.03800
C938        C  0.22270171  0.10202947  0.83032956    -0.18900
H939        H  0.21118572  0.16019107  0.95349042     0.10200
H940        H  0.20070673  0.13195825  0.92070495     0.10300
H941        H  0.23365085  0.18011905  0.86857898     0.10000
H942        H  0.24412839  0.20831104  0.90126952     0.11100
H943        H  0.21241720  0.14402486  0.85386239     0.11200
H944        H  0.21554908  0.10447688  0.89305225     0.13100
H945        H  0.21515216  0.06280127  0.87760233     0.09600
H946        H  0.22702314  0.03350511  0.84608732     0.11700
H947        H  0.23411212  0.09212553  0.79466819     0.08300
H948        H  0.22228058  0.12086403  0.82503836     0.11000
C949        C  0.18535984  0.07087803  0.76832782    -0.03600
C950        C  0.16488120  0.06352748  0.78149108    -0.06200
C951        C  0.14671189  0.08022016  0.78731124    -0.21300
C952        C  0.14867773  0.10462805  0.78031379     0.24500
C953        C  0.16960052  0.11214144  0.76783682    -0.18800
C954        C  0.18775521  0.09544810  0.76201705    -0.08800
C955        C  0.12743754  0.12089198  0.78378898    -0.19100
C956        C  0.12879286  0.14531317  0.78313642    -0.23900
C957        C  0.10737692  0.16177284  0.78111813     0.26500
C958        C  0.11163819  0.18643203  0.77631753    -0.20600
C959        C  0.09249927  0.20200658  0.77035514    -0.10300
C960        C  0.06858681  0.19329806  0.76924326    -0.10800
C961        C  0.06400106  0.16916781  0.77589813    -0.03800
C962        C  0.08316308  0.15350576  0.78172288    -0.18900
H963        H  0.16254578  0.04473188  0.78671993     0.10200
H964        H  0.13073788  0.07390513  0.79676847     0.10300
H965        H  0.17160489  0.13056444  0.76142602     0.10000
H966        H  0.20329474  0.10166395  0.75181489     0.11100
H967        H  0.11006528  0.11201195  0.78576527     0.11200
H968        H  0.14652468  0.15379377  0.78233047     0.13100
H969        H  0.12998202  0.19347206  0.77605267     0.09600
H970        H  0.09651851  0.22069706  0.76582006     0.11700
H971        H  0.04568941  0.16205046  0.77548663     0.08300
H972        H  0.07869715  0.13491901  0.78589327     0.11000
C973        C  0.06086849  0.82636967  0.74489341    -0.03600
C974        C  0.08191727  0.81930223  0.75771484    -0.06200
C975        C  0.10211259  0.83440370  0.75872181    -0.21300
C976        C  0.10167864  0.85707340  0.74731140     0.24500
C977        C  0.08056351  0.86444712  0.73472207    -0.18800
C978        C  0.06029643  0.84916639  0.73351479    -0.08800
C979        C  0.12387834  0.87209726  0.74836020    -0.19100
C980        C  0.12330460  0.89643604  0.74835681    -0.23900
C981        C  0.14544503  0.91142935  0.75095857     0.26500
C982        C  0.14335976  0.93447170  0.76150687    -0.20600
C983        C  0.16355145  0.94955129  0.76359057    -0.10300
C984        C  0.18624626  0.94204076  0.75479397    -0.10800
C985        C  0.18847030  0.91883381  0.74444529    -0.03800
C986        C  0.16823751  0.90362894  0.74252637    -0.18900
H987        H  0.08305277  0.80181875  0.76664217     0.10200
H988        H  0.11817119  0.82833236  0.76846886     0.10300
H989        H  0.07989890  0.88165025  0.72524886     0.10000
H990        H  0.04443222  0.85495737  0.72331790     0.11100
H991        H  0.14105240  0.86276690  0.75109135     0.11200
H992        H  0.10591562  0.90574068  0.74814385     0.13100
H993        H  0.12599393  0.94088796  0.76804341     0.09600
H994        H  0.16118275  0.96741803  0.77148116     0.11700
H995        H  0.20565004  0.91271639  0.73719782     0.08300
H996        H  0.17034929  0.88618254  0.73372094     0.11000
C997        C  0.95874297  0.68364257  0.78583982    -0.03600
C998        C  0.94625376  0.66913471  0.76884114    -0.06200
C999        C  0.93658117  0.64658800  0.77578921    -0.21300
C1000       C  0.93917176  0.63797413  0.79982651     0.24500
C1001       C  0.95245993  0.65222560  0.81651662    -0.18800
C1002       C  0.96181148  0.67473441  0.80968005    -0.08800
C1003       C  0.92782587  0.61421155  0.80666682    -0.19100
C1004       C  0.92511933  0.60650366  0.82989976    -0.23900
C1005       C  0.91341631  0.58321869  0.83740858     0.26500
C1006       C  0.91613795  0.57572125  0.86176704    -0.20600
C1007       C  0.90491197  0.55461378  0.87018970    -0.10300
C1008       C  0.89040872  0.54061485  0.85452729    -0.10800
C1009       C  0.88782633  0.54772044  0.83012323    -0.03800
C1010       C  0.89910977  0.56886280  0.82160759    -0.18900
H1011       H  0.94356397  0.67537806  0.75033186     0.10200
H1012       H  0.92669593  0.63598763  0.76238926     0.10300
H1013       H  0.95590801  0.64631127  0.83494687     0.10000
H1014       H  0.97147256  0.68525054  0.82330439     0.11100
H1015       H  0.92117210  0.60299863  0.79183739     0.11200
H1016       H  0.93161585  0.61779355  0.84470523     0.13100
H1017       H  0.92705015  0.58626060  0.87439713     0.09600
H1018       H  0.90762424  0.54912528  0.88893563     0.11700
H1019       H  0.87682772  0.53700239  0.81772904     0.08300
H1020       H  0.89612190  0.57397403  0.80284531     0.11000
C1021       C  0.85071040  0.54318731  0.89013390    -0.03600
C1022       C  0.85992520  0.55403024  0.91137361    -0.06200
C1023       C  0.84965068  0.57545612  0.92033863    -0.21300
C1024       C  0.82995759  0.58659743  0.90829478     0.24500
C1025       C  0.82102543  0.57580800  0.88671520    -0.18800
C1026       C  0.83137897  0.55435642  0.87775940    -0.08800
C1027       C  0.81901576  0.60877299  0.91952918    -0.19100
C1028       C  0.80151822  0.62269083  0.90922551    -0.23900
C1029       C  0.79107049  0.64459727  0.92132830     0.26500
C1030       C  0.78063124  0.66304590  0.90697857    -0.20600
C1031       C  0.77181011  0.68442337  0.91768533    -0.10300
C1032       C  0.77308003  0.68769185  0.94304194    -0.10800
C1033       C  0.78226039  0.66864965  0.95745937    -0.03800
C1034       C  0.79107041  0.64737029  0.94680209    -0.18900
H1035       H  0.87481042  0.54566913  0.92124531     0.10200
H1036       H  0.85695307  0.58319446  0.93698360     0.10300
H1037       H  0.80577754  0.58337366  0.87687158     0.10000
H1038       H  0.82395509  0.54614142  0.86140191     0.11100
H1039       H  0.82625705  0.61408085  0.93717119     0.11200
H1040       H  0.79522826  0.61881018  0.89090350     0.13100
H1041       H  0.77998954  0.66124032  0.88734239     0.09600
H1042       H  0.76483813  0.69871639  0.90605781     0.11700
H1043       H  0.78310852  0.67037073  0.97706947     0.08300
H1044       H  0.79787156  0.63321365  0.95865491     0.11000
C1045       C  0.87857731  0.45096298  0.84885869    -0.01200
C1046       C  0.86080252  0.44244670  0.83252942    -0.06200
C1047       C  0.86476528  0.42137000  0.81879140    -0.21300
C1048       C  0.88670821  0.40855651  0.82090103     0.24500
C1049       C  0.90418817  0.41667330  0.83787801    -0.18800
C1050       C  0.90013086  0.43761595  0.85172897    -0.08800
C1051       C  0.89086356  0.38661571  0.80554526    -0.19100
C1052       C  0.91305170  0.38090870  0.79709486    -0.23900
C1053       C  0.91911940  0.35897476  0.78234780     0.26500
C1054       C  0.94192043  0.35829297  0.77117199    -0.20600
C1055       C  0.95045871  0.33703456  0.76038262    -0.10300
C1056       C  0.93640441  0.31579357  0.76037896    -0.10800
C1057       C  0.91285153  0.31674219  0.76998361    -0.03800
C1058       C  0.90426305  0.33815130  0.78098718    -0.18900
H1059       H  0.84394522  0.45233234  0.83020626     0.10200
H1060       H  0.85088450  0.41534817  0.80610575     0.10300
H1061       H  0.92090602  0.40670307  0.84068806     0.10000
H1062       H  0.91375586  0.44319610  0.86483034     0.11100
H1063       H  0.87522725  0.37586094  0.80020944     0.11200
H1064       H  0.92790884  0.39329234  0.80103645     0.13100
H1065       H  0.95375783  0.37397405  0.77183160     0.09600
H1066       H  0.96877200  0.33678975  0.75333169     0.11700
H1067       H  0.90188734  0.30046007  0.77075914     0.08300
H1068       H  0.88670838  0.33777193  0.78963148     0.11000
C1069       C  0.77527174  0.31665533  0.96961921    -0.03600
C1070       C  0.75907186  0.32794371  0.95330735    -0.06200
C1071       C  0.76513187  0.35023349  0.94246076    -0.21300
C1072       C  0.78747525  0.36156367  0.94764564     0.24500
C1073       C  0.80276990  0.35104497  0.96532012    -0.18800
C1074       C  0.79682970  0.32885753  0.97595815    -0.08800
C1075       C  0.79462383  0.38402956  0.93423179    -0.19100
C1076       C  0.81809747  0.38976204  0.93002204    -0.23900
C1077       C  0.82695437  0.41158780  0.91655477     0.26500
C1078       C  0.85208019  0.41382026  0.91281599    -0.20600
C1079       C  0.86173524  0.43408053  0.90104587    -0.10300
C1080       C  0.84649662  0.45258359  0.89233506    -0.10800
C1081       C  0.82136501  0.45053942  0.89603296    -0.03800
C1082       C  0.81164019  0.43028468  0.90798836    -0.18900
H1083       H  0.74233212  0.31902788  0.94805389     0.10200
H1084       H  0.75277986  0.35814986  0.92924856     0.10300
H1085       H  0.81955779  0.35969859  0.97079538     0.10000
H1086       H  0.80958590  0.32086295  0.98870674     0.11100
H1087       H  0.78017484  0.39513186  0.92671140     0.11200
H1088       H  0.83203433  0.37730287  0.93636496     0.13100
H1089       H  0.86443374  0.39995879  0.91940377     0.09600
H1090       H  0.88122335  0.43561575  0.89937632     0.11700
H1091       H  0.80928499  0.46483706  0.88990492     0.08300
H1092       H  0.79226128  0.42967018  0.91067797     0.11000
C1093       C  0.88712553  0.54724788  0.15897100    -0.03600
C1094       C  0.88235842  0.54807698  0.18400922    -0.06200
C1095       C  0.88984830  0.56790029  0.19800844    -0.21300
C1096       C  0.90276806  0.58693321  0.18730659     0.24500
C1097       C  0.90686256  0.58647346  0.16199811    -0.18800
C1098       C  0.89907337  0.56673326  0.14792434    -0.08800
C1099       C  0.91226052  0.60672871  0.20302150    -0.19100
C1100       C  0.93416261  0.61661892  0.19907386    -0.23900
C1101       C  0.94522238  0.63662300  0.21359100     0.26500
C1102       C  0.96901094  0.64334127  0.20783410    -0.20600
C1103       C  0.97917303  0.66435985  0.21752156    -0.10300
C1104       C  0.96602168  0.67902024  0.23359286    -0.10800
C1105       C  0.94297217  0.67144325  0.24110673    -0.03800
C1106       C  0.93252243  0.65039607  0.23108643    -0.18900
H1107       H  0.87332561  0.53303141  0.19280819     0.10200
H1108       H  0.88639314  0.56793259  0.21739817     0.10300
H1109       H  0.91629302  0.60121513  0.15314384     0.10000
H1110       H  0.90313530  0.56623660  0.12867142     0.11100
H1111       H  0.90176678  0.61183225  0.21883652     0.11200
H1112       H  0.94486152  0.60953683  0.18410140     0.13100
H1113       H  0.97929187  0.63313813  0.19454067     0.09600
H1114       H  0.99662106  0.67021177  0.21085424     0.11700
H1115       H  0.93223110  0.68288798  0.25293050     0.08300
H1116       H  0.91410762  0.64599887  0.23601653     0.11000
C1117       C  0.85137027  0.54572906  0.11832287    -0.03600
C1118       C  0.83049700  0.55414666  0.13007513    -0.06200
C1119       C  0.81743136  0.57385029  0.12058409    -0.21300
C1120       C  0.82485698  0.58530068  0.09904121     0.24500
C1121       C  0.84634071  0.57721858  0.08777891    -0.18800
C1122       C  0.85937829  0.55756987  0.09730444    -0.08800
C1123       C  0.81031561  0.60604642  0.08927893    -0.19100
C1124       C  0.81076716  0.61273903  0.06569547    -0.23900
C1125       C  0.79901677  0.63505475  0.05599363     0.26500
C1126       C  0.81036403  0.64687379  0.03662161    -0.20600
C1127       C  0.80115846  0.66862441  0.02753814    -0.10300
C1128       C  0.77993310  0.67892501  0.03714427    -0.10800
C1129       C  0.76771639  0.66655902  0.05576729    -0.03800
C1130       C  0.77731062  0.64482947  0.06530176    -0.18900
H1131       H  0.82408308  0.54514541  0.14631985     0.10200
H1132       H  0.80121183  0.57987931  0.12983421     0.10300
H1133       H  0.85335135  0.58608917  0.07176290     0.10000
H1134       H  0.87554477  0.55132680  0.08809338     0.11100
H1135       H  0.79919200  0.61619458  0.10197568     0.11200
H1136       H  0.82169520  0.60244023  0.05298036     0.13100
H1137       H  0.82698451  0.63968895  0.02902105     0.09600
H1138       H  0.81106238  0.67774633  0.01325312     0.11700
H1139       H  0.75144696  0.67420383  0.06363248     0.08300
H1140       H  0.76784515  0.63582095  0.07992342     0.11000
C1141       C  0.97231871  0.32446487  0.22481761    -0.03600
C1142       C  0.98410532  0.33588255  0.20534940    -0.06200
C1143       C  0.97793173  0.35944433  0.19856115    -0.21300
C1144       C  0.95902647  0.37157512  0.21030600     0.24500
C1145       C  0.94785274  0.36067936  0.23049569    -0.18800
C1146       C  0.95471986  0.33731783  0.23792352    -0.08800
C1147       C  0.95015651  0.39455327  0.19965624    -0.19100
C1148       C  0.92632887  0.39865599  0.19615379    -0.23900
C1149       C  0.91657569  0.41927710  0.18171551     0.26500
C1150       C  0.89237763  0.42631702  0.18523849    -0.20600
C1151       C  0.88255182  0.44586221  0.17234370    -0.10300
C1152       C  0.89665682  0.45847600  0.15543658    -0.10800
C1153       C  0.92033705  0.45055719  0.15067871    -0.03800
C1154       C  0.93033686  0.43126179  0.16385213    -0.18900
H1155       H  0.99767865  0.32626804  0.19490114     0.10200
H1156       H  0.98683929  0.36758942  0.18306461     0.10300
H1157       H  0.93343402  0.36994511  0.24005701     0.10000
H1158       H  0.94528030  0.32877177  0.25285831     0.11100
H1159       H  0.96354502  0.40678129  0.19211656     0.11200
H1160       H  0.91330199  0.38596172  0.20367553     0.13100
H1161       H  0.88121375  0.41700915  0.19841698     0.09600
H1162       H  0.86409613  0.45153722  0.17594772     0.11700
H1163       H  0.93125838  0.45970937  0.13719649     0.08300
H1164       H  0.94866711  0.42570716  0.15972085     0.11000
C1165       C  0.78497965  0.31543725  0.04889408    -0.03600
C1166       C  0.76911694  0.32881235  0.06369915    -0.06200
C1167       C  0.77650608  0.35101636  0.07389686    -0.21300
C1168       C  0.79983876  0.36030330  0.06949187     0.24500
C1169       C  0.81515767  0.34743296  0.05365263    -0.18800
C1170       C  0.80792091  0.32521764  0.04376790    -0.08800
C1171       C  0.80755973  0.38343303  0.08146497    -0.19100
C1172       C  0.83109640  0.38950848  0.08500078    -0.23900
C1173       C  0.83983460  0.41244033  0.09658118     0.26500
C1174       C  0.86449706  0.41851577  0.09420543    -0.20600
C1175       C  0.87379254  0.43980210  0.10453262    -0.10300
C1176       C  0.85859570  0.45552107  0.11747101    -0.10800
C1177       C  0.83403695  0.44947686  0.12019626    -0.03800
C1178       C  0.82472473  0.42806899  0.11002637    -0.18900
H1179       H  0.75130253  0.32180181  0.06797396     0.10200
H1180       H  0.76416097  0.36069620  0.08571228     0.10300
H1181       H  0.83278461  0.35434940  0.04870399     0.10000
H1182       H  0.82050006  0.31555512  0.03219917     0.11100
H1183       H  0.79330974  0.39534961  0.08786477     0.11200
H1184       H  0.84510392  0.37707513  0.07903058     0.13100
H1185       H  0.87660195  0.40687771  0.08401006     0.09600
H1186       H  0.89270551  0.44434251  0.10189345     0.11700
H1187       H  0.82204261  0.46147405  0.13010576     0.08300
H1188       H  0.80580015  0.42396324  0.11288036     0.11000
C1189       C  0.85067490  0.50010391  0.08998238    -0.03600
C1190       C  0.82739654  0.50724851  0.08222671    -0.06200
C1191       C  0.82163768  0.50774605  0.05723744    -0.21300
C1192       C  0.83913315  0.50132049  0.03984319     0.24500
C1193       C  0.86203119  0.49326846  0.04797164    -0.18800
C1194       C  0.86777051  0.49300301  0.07262505    -0.08800
C1195       C  0.83348530  0.50238708  0.01329715    -0.19100
C1196       C  0.85112314  0.50697306  0.99711993    -0.23900
C1197       C  0.84914490  0.50324576  0.97050191     0.26500
C1198       C  0.87024901  0.49594136  0.95849513    -0.20600
C1199       C  0.87038248  0.49315623  0.93339566    -0.10300
C1200       C  0.84954356  0.49809273  0.91952578    -0.10800
C1201       C  0.82811418  0.50518362  0.93128397    -0.03800
C1202       C  0.82783462  0.50753213  0.95681632    -0.18900
H1203       H  0.81393116  0.51270977  0.09540220     0.10200
H1204       H  0.80374016  0.51359864  0.05146017     0.10300
H1205       H  0.87565248  0.48700805  0.03533454     0.10000
H1206       H  0.88583287  0.48743934  0.07822755     0.11100
H1207       H  0.81517861  0.49834795  0.00709955     0.11200
H1208       H  0.86908010  0.51171920  0.00386979     0.13100
H1209       H  0.88686134  0.49251994  0.96861162     0.09600
H1210       H  0.88711819  0.48791290  0.92458647     0.11700
H1211       H  0.81197495  0.50937130  0.92074033     0.08300
H1212       H  0.81138926  0.51349664  0.96566538     0.11000
C1213       C  0.11788225  0.54270604  0.15596390    -0.03600
C1214       C  0.13418811  0.55638654  0.17016420    -0.06200
C1215       C  0.12668104  0.57798019  0.18128280    -0.21300
C1216       C  0.10256038  0.58587458  0.17901342     0.24500
C1217       C  0.08625475  0.57225463  0.16473493    -0.18800
C1218       C  0.09397208  0.55110622  0.15295718    -0.08800
C1219       C  0.09514880  0.60931516  0.18997960    -0.19100
C1220       C  0.07355673  0.61247047  0.20087293    -0.23900
C1221       C  0.06501441  0.63665557  0.20914071     0.26500
C1222       C  0.05136583  0.63890358  0.23056758    -0.20600
C1223       C  0.04184146  0.66150552  0.23756067    -0.10300
C1224       C  0.04505416  0.68190137  0.22265013    -0.10800
C1225       C  0.05868487  0.67957071  0.20125220    -0.03800
C1226       C  0.06877966  0.65728818  0.19469730    -0.18900
H1227       H  0.15281150  0.55044359  0.17239512     0.10200
H1228       H  0.13965801  0.58844895  0.19182763     0.10300
H1229       H  0.06775211  0.57838698  0.16206073     0.10000
H1230       H  0.08129829  0.54131080  0.14144778     0.11100
H1231       H  0.10791330  0.62431257  0.18926338     0.11200
H1232       H  0.06179039  0.59693545  0.20372592     0.13100
H1233       H  0.04799662  0.62313851  0.24179837     0.09600
H1234       H  0.03113823  0.66283973  0.25396786     0.11700
H1235       H  0.06137680  0.69505679  0.18942880     0.08300
H1236       H  0.07873921  0.65600882  0.17781986     0.11000
C1237       C  0.15460797  0.54523168  0.11683097    -0.03600
C1238       C  0.14006285  0.56401158  0.10753020    -0.06200
C1239       C  0.15071634  0.58471924  0.09744786    -0.21300
C1240       C  0.17609401  0.58716708  0.09649165     0.24500
C1241       C  0.19064349  0.56840749  0.10607621    -0.18800
C1242       C  0.17996776  0.54769044  0.11609993    -0.08800
C1243       C  0.18650709  0.60880981  0.08408541    -0.19100
C1244       C  0.20943139  0.61689178  0.08734319    -0.23900
C1245       C  0.21877304  0.63896095  0.07489699     0.26500
C1246       C  0.23592851  0.65376729  0.08676053    -0.20600
C1247       C  0.24372321  0.67552366  0.07612455    -0.10300
C1248       C  0.23485255  0.68262772  0.05315403    -0.10800
C1249       C  0.21871143  0.66706928  0.04076042    -0.03800
C1250       C  0.21075455  0.64553327  0.05146586    -0.18900
H1251       H  0.12050389  0.56225445  0.10724242     0.10200
H1252       H  0.13905679  0.59873394  0.08997111     0.10300
H1253       H  0.21021262  0.56918345  0.10512387     0.10000
H1254       H  0.19152786  0.53318906  0.12274989     0.11100
H1255       H  0.17429918  0.61912896  0.07242433     0.11200
H1256       H  0.22119863  0.60824219  0.10067008     0.13100
H1257       H  0.24264065  0.64892943  0.10469447     0.09600
H1258       H  0.25614867  0.68707473  0.08616257     0.11700
H1259       H  0.21153409  0.67190261  0.02304717     0.08300
H1260       H  0.19818787  0.63415881  0.04141236     0.11000
C1261       C  0.06049617  0.30996329  0.22451534    -0.03600
C1262       C  0.04586081  0.33080442  0.22354761    -0.06200
C1263       C  0.05454826  0.35239337  0.21365611    -0.21300
C1264       C  0.07838837  0.35398231  0.20510482     0.24500
C1265       C  0.09383626  0.33372790  0.20785581    -0.18800
C1266       C  0.08490255  0.31182494  0.21745346    -0.08800
C1267       C  0.08544377  0.37622585  0.19150613    -0.19100
C1268       C  0.10820421  0.38491661  0.19021193    -0.23900
C1269       C  0.11373024  0.40778908  0.17696535     0.26500
C1270       C  0.12999824  0.42453329  0.18727166    -0.20600
C1271       C  0.13467145  0.44663151  0.17565130    -0.10300
C1272       C  0.12376709  0.45204811  0.15314615    -0.10800
C1273       C  0.10823796  0.43494893  0.14227419    -0.03800
C1274       C  0.10300373  0.41311738  0.15422804    -0.18900
H1275       H  0.02724970  0.33008332  0.22957674     0.10200
H1276       H  0.04233254  0.36773830  0.21202807     0.10300
H1277       H  0.11227804  0.33428432  0.20125373     0.10000
H1278       H  0.09657236  0.29600048  0.21785479     0.11100
H1279       H  0.07088530  0.38660092  0.18301643     0.11200
H1280       H  0.12265880  0.37625422  0.20056691     0.13100
H1281       H  0.13861324  0.42076491  0.20464817     0.09600
H1282       H  0.14686490  0.45954688  0.18418834     0.11700
H1283       H  0.09995189  0.43864181  0.12473071     0.08300
H1284       H  0.09078111  0.40029818  0.14560653     0.11000
C1285       C  0.15731651  0.45561452  0.11190748    -0.03600
C1286       C  0.17754124  0.44613073  0.12425031    -0.06200
C1287       C  0.19063076  0.42675065  0.11438304    -0.21300
C1288       C  0.18399390  0.41667293  0.09180064     0.24500
C1289       C  0.16330217  0.42589902  0.07967894    -0.18800
C1290       C  0.15001888  0.44512055  0.08974336    -0.08800
C1291       C  0.19825847  0.39574164  0.08224081    -0.19100
C1292       C  0.19964188  0.39012673  0.05837564    -0.23900
C1293       C  0.21145067  0.36772505  0.04867410     0.26500
C1294       C  0.20429388  0.35957693  0.02551085    -0.20600
C1295       C  0.21239926  0.33729770  0.01657094    -0.10300
C1296       C  0.22838266  0.32276487  0.03028678    -0.10800
C1297       C  0.23704564  0.33156885  0.05271263    -0.03800
C1298       C  0.22859768  0.35384629  0.06191136    -0.18900
H1299       H  0.18339978  0.45400990  0.14138716     0.10200
H1300       H  0.20623427  0.41981612  0.12426985     0.10300
H1301       H  0.15706363  0.41810971  0.06266717     0.10000
H1302       H  0.13433389  0.45213802  0.08005215     0.11100
H1303       H  0.20765577  0.38458757  0.09554723     0.11200
H1304       H  0.19041618  0.40169542  0.04526554     0.13100
H1305       H  0.19137147  0.36990453  0.01475071     0.09600
H1306       H  0.20529323  0.33089467  0.99927725     0.11700
H1307       H  0.24917536  0.32060787  0.06374844     0.08300
H1308       H  0.23518300  0.35977838  0.07951845     0.11000
C1309       C  0.92203762  0.50691282  0.15648047    -0.03600
C1310       C  0.93634356  0.51665927  0.13792345    -0.06200
C1311       C  0.96150083  0.51705275  0.13998654    -0.21300
C1312       C  0.97329265  0.50760698  0.16062631     0.24500
C1313       C  0.95901781  0.49874961  0.17992059    -0.18800
C1314       C  0.93347326  0.49852844  0.17787921    -0.08800
C1315       C  0.00026533  0.50563459  0.15949906    -0.19100
C1316       C  0.01561482  0.49920702  0.17765421    -0.23900
C1317       C  0.04203496  0.49607591  0.17254965     0.26500
C1318       C  0.05993381  0.50442851  0.18894480    -0.20600
C1319       C  0.08466472  0.50377534  0.18256886    -0.10300
C1320       C  0.09171978  0.49472134  0.15970435    -0.10800
C1321       C  0.07385654  0.48516922  0.14409350    -0.03800
C1322       C  0.04946381  0.48553550  0.15051208    -0.18900
H1323       H  0.92799219  0.52308058  0.12119948     0.10200
H1324       H  0.97186477  0.52399986  0.12482900     0.10300
H1325       H  0.96742423  0.49114608  0.19604575     0.10000
H1326       H  0.92275495  0.49084430  0.19239869     0.11100
H1327       H  0.00818459  0.50968041  0.14188938     0.11200
H1328       H  0.00914161  0.49693658  0.19611533     0.13100
H1329       H  0.05471335  0.51240350  0.20616086     0.09600
H1330       H  0.09810583  0.51124731  0.19493633     0.11700
H1331       H  0.07871949  0.47827435  0.12630799     0.08300
H1332       H  0.03628163  0.47815911  0.13780347     0.11000
C1333       C  0.03523279  0.68062761  0.77445381    -0.03600
C1334       C  0.05385009  0.67049086  0.76040334    -0.06200
C1335       C  0.06492995  0.64859662  0.76758960    -0.21300
C1336       C  0.05760471  0.63647336  0.78888608     0.24500
C1337       C  0.03769619  0.64579409  0.80177353    -0.18800
C1338       C  0.02692106  0.66769355  0.79480092    -0.08800
C1339       C  0.07126454  0.61451698  0.79737169    -0.19100
C1340       C  0.07212549  0.60738336  0.82097356    -0.23900
C1341       C  0.08600915  0.58603691  0.83071731     0.26500
C1342       C  0.08514440  0.58133521  0.85590462    -0.20600
C1343       C  0.09718273  0.56130168  0.86604906    -0.10300
C1344       C  0.11055935  0.54548927  0.85127058    -0.10800
C1345       C  0.11164158  0.55013425  0.82616421    -0.03800
C1346       C  0.09960955  0.57017134  0.81596058    -0.18900
H1347       H  0.06083088  0.68019748  0.74482454     0.10200
H1348       H  0.07997979  0.64166882  0.75707111     0.10300
H1349       H  0.03063677  0.63657029  0.81757719     0.10000
H1350       H  0.01264425  0.67508906  0.80599767     0.11100
H1351       H  0.08179425  0.60495513  0.78383121     0.11200
H1352       H  0.06249223  0.61812703  0.83436162     0.13100
H1353       H  0.07471699  0.59299893  0.86779767     0.09600
H1354       H  0.09529367  0.55766134  0.88529722     0.11700
H1355       H  0.12146835  0.53787867  0.81434840     0.08300
H1356       H  0.10083586  0.57273817  0.79653044     0.11000
C1357       C  0.22694833  0.68120820  0.95980577    -0.03600
C1358       C  0.24070749  0.67045850  0.94126942    -0.06200
C1359       C  0.23278465  0.64883229  0.93017835    -0.21300
C1360       C  0.21108749  0.63759646  0.93749520     0.24500
C1361       C  0.19850541  0.64750571  0.95737526    -0.18800
C1362       C  0.20613495  0.66915220  0.96807220    -0.08800
C1363       C  0.20186238  0.61588427  0.92398112    -0.19100
C1364       C  0.17842020  0.60876979  0.92460437    -0.23900
C1365       C  0.16875406  0.58684848  0.91214305     0.26500
C1366       C  0.14913466  0.57465131  0.92275300    -0.20600
C1367       C  0.13930558  0.55395244  0.91181019    -0.10300
C1368       C  0.14861208  0.54530884  0.88976477    -0.10800
C1369       C  0.16775887  0.55779591  0.87866446    -0.03800
C1370       C  0.17786301  0.57840018  0.88980559    -0.18900
H1371       H  0.25682337  0.67936473  0.93453696     0.10200
H1372       H  0.24314205  0.64135416  0.91525284     0.10300
H1373       H  0.18253097  0.63891449  0.96468864     0.10000
H1374       H  0.19524972  0.67684150  0.98249759     0.11100
H1375       H  0.21465610  0.60575183  0.91296864     0.11200
H1376       H  0.16546108  0.61889111  0.93534868     0.13100
H1377       H  0.14168503  0.58091460  0.93984758     0.09600
H1378       H  0.12464893  0.54442244  0.92069000     0.11700
H1379       H  0.17512312  0.55132154  0.86161639     0.08300
H1380       H  0.19253299  0.58778447  0.88083997     0.11000
C1381       C  0.11183472  0.45510206  0.84949405    -0.03600
C1382       C  0.09111312  0.44519646  0.86027385    -0.06200
C1383       C  0.07854779  0.42629739  0.84894071    -0.21300
C1384       C  0.08613792  0.41713346  0.82638120     0.24500
C1385       C  0.10734445  0.42661135  0.81584402    -0.18800
C1386       C  0.12008965  0.44549826  0.82737325    -0.08800
C1387       C  0.07156023  0.39736368  0.81508157    -0.19100
C1388       C  0.07067099  0.39228167  0.79103594    -0.23900
C1389       C  0.05552880  0.37208772  0.78113124     0.26500
C1390       C  0.06302676  0.35955104  0.76017980    -0.20600
C1391       C  0.05108210  0.33827676  0.75274195    -0.10300
C1392       C  0.03143763  0.32930054  0.76618330    -0.10800
C1393       C  0.02253163  0.34314982  0.78564128    -0.03800
C1394       C  0.03427603  0.36441574  0.79289799    -0.18900
H1395       H  0.08426134  0.45267901  0.87713348     0.10200
H1396       H  0.06238806  0.41925241  0.85752820     0.10300
H1397       H  0.11409081  0.41957390  0.79879226     0.10000
H1398       H  0.13588433  0.45317961  0.81866970     0.11100
H1399       H  0.06058249  0.38676219  0.82746589     0.11200
H1400       H  0.08193578  0.40233786  0.77845826     0.13100
H1401       H  0.07898946  0.36540190  0.75041725     0.09600
H1402       H  0.05824327  0.32800749  0.73757603     0.11700
H1403       H  0.00704843  0.33694802  0.79594922     0.08300
H1404       H  0.02703434  0.37436083  0.80821616     0.11000
C1405       C  0.23572383  0.31115357  0.93467596    -0.03600
C1406       C  0.22856785  0.31064225  0.91006411    -0.06200
C1407       C  0.21721618  0.33087719  0.89934589    -0.21300
C1408       C  0.21330724  0.35226509  0.91277768     0.24500
C1409       C  0.22172513  0.35322842  0.93700814    -0.18800
C1410       C  0.23260847  0.33285608  0.94784943    -0.08800
C1411       C  0.19834515  0.37225940  0.90199992    -0.19100
C1412       C  0.20164586  0.39591378  0.90744799    -0.23900
C1413       C  0.18592265  0.41566993  0.89752882     0.26500
C1414       C  0.19653919  0.43760262  0.89033326    -0.20600
C1415       C  0.18214393  0.45703960  0.88238628    -0.10300
C1416       C  0.15663713  0.45543007  0.88216881    -0.10800
C1417       C  0.14597134  0.43352913  0.88981006    -0.03800
C1418       C  0.16046366  0.41372528  0.89699663    -0.18900
H1419       H  0.23018665  0.29405487  0.89959363     0.10200
H1420       H  0.21078234  0.32956481  0.88070802     0.10300
H1421       H  0.21863622  0.36919937  0.94807001     0.10000
H1422       H  0.23768113  0.33372573  0.96691141     0.11100
H1423       H  0.18441564  0.36735873  0.88878200     0.11200
H1424       H  0.21702519  0.40117746  0.91874736     0.13100
H1425       H  0.21607511  0.43972028  0.89090274     0.09600
H1426       H  0.19095977  0.47372595  0.87697037     0.11700
H1427       H  0.12652085  0.43193742  0.89125639     0.08300
H1428       H  0.15174908  0.39727622  0.90321134     0.11000
C1429       C  0.15418732  0.50293462  0.08493669    -0.03600
C1430       C  0.13521105  0.51278100  0.07097295    -0.06200
C1431       C  0.13651948  0.51346091  0.04575001    -0.21300
C1432       C  0.15678381  0.50420494  0.03359714     0.24500
C1433       C  0.17638444  0.49500993  0.04746680    -0.18800
C1434       C  0.17511406  0.49448525  0.07308362    -0.08800
C1435       C  0.15503832  0.50262157  0.00662911    -0.19100
C1436       C  0.17361158  0.49992362  0.99103743    -0.23900
C1437       C  0.16876622  0.49807505  0.96435047     0.26500
C1438       C  0.18424096  0.50919155  0.94743869    -0.20600
C1439       C  0.17827300  0.50930074  0.92248285    -0.10300
C1440       C  0.15680425  0.49814433  0.91419436    -0.10800
C1441       C  0.14208718  0.48607667  0.93102086    -0.03800
C1442       C  0.14805881  0.48584128  0.95568189    -0.18900
H1443       H  0.11884465  0.51927778  0.07966074     0.10200
H1444       H  0.12116986  0.52062500  0.03561329     0.10300
H1445       H  0.19214976  0.48740849  0.03864092     0.10000
H1446       H  0.18997778  0.48681393  0.08353550     0.11100
H1447       H  0.13687390  0.50449148  0.99900640     0.11200
H1448       H  0.19222767  0.50033997  0.99760232     0.13100
H1449       H  0.20044818  0.51849564  0.95363276     0.09600
H1450       H  0.19003527  0.51850562  0.90979007     0.11700
H1451       H  0.12549905  0.47726370  0.92507669     0.08300
H1452       H  0.13617433  0.47632907  0.96803611     0.11000
C1453       C  0.91404506  0.49294514  0.85292846    -0.03600
C1454       C  0.92829217  0.48961575  0.87387627    -0.06200
C1455       C  0.95338518  0.48790733  0.87234429    -0.21300
C1456       C  0.96513483  0.48997208  0.84987329     0.24500
C1457       C  0.95090549  0.49349164  0.82866614    -0.18800
C1458       C  0.92541502  0.49493060  0.83022174    -0.08800
C1459       C  0.99215354  0.48898096  0.85040095    -0.19100
C1460       C  0.00726945  0.49498510  0.83216115    -0.23900
C1461       C  0.03390653  0.49714375  0.83676891     0.26500
C1462       C  0.05084423  0.49091476  0.81873816    -0.20600
C1463       C  0.07591698  0.49228573  0.82364046    -0.10300
C1464       C  0.08425543  0.50011891  0.84658958    -0.10800
C1465       C  0.06731001  0.50704907  0.86418318    -0.03800
C1466       C  0.04254476  0.50584179  0.85930346    -0.18900
H1467       H  0.91984730  0.48828800  0.89157804     0.10200
H1468       H  0.96371807  0.48534074  0.88900691     0.10300
H1469       H  0.95925922  0.49512797  0.81100200     0.10000
H1470       H  0.91465371  0.49773274  0.81389488     0.11100
H1471       H  0.00026073  0.48396143  0.86777768     0.11200
H1472       H  0.00032188  0.49881170  0.81404963     0.13100
H1473       H  0.04467124  0.48448594  0.80111430     0.09600
H1474       H  0.08872562  0.48692390  0.80978298     0.11700
H1475       H  0.07333974  0.51313183  0.88199375     0.08300
H1476       H  0.03016252  0.51179010  0.87331044     0.11000
C1477       C  0.54902163  0.87874921  0.84151311    -0.03600
C1478       C  0.54697038  0.87885493  0.81595401    -0.06200
C1479       C  0.56618102  0.88653503  0.80144228    -0.21300
C1480       C  0.58828752  0.89352080  0.81199958     0.24500
C1481       C  0.59089084  0.89255712  0.83750110    -0.18800
C1482       C  0.57131141  0.88558436  0.85215222    -0.08800
C1483       C  0.60706795  0.90462790  0.79629811    -0.19100
C1484       C  0.63104593  0.90132752  0.79972415    -0.23900
C1485       C  0.64966366  0.91571214  0.78654581     0.26500
C1486       C  0.67308328  0.90613254  0.78333754    -0.20600
C1487       C  0.69210881  0.92099595  0.77539374    -0.10300
C1488       C  0.68807253  0.94580135  0.77119930    -0.10800
C1489       C  0.66440633  0.95499923  0.77287621    -0.03800
C1490       C  0.64532900  0.94008378  0.78020936    -0.18900
H1491       H  0.53001183  0.87386892  0.80720037     0.10200
H1492       H  0.56362511  0.88743964  0.78188860     0.10300
H1493       H  0.60754494  0.89857011  0.84616484     0.10000
H1494       H  0.57329834  0.88676020  0.87170933     0.11100
H1495       H  0.60078536  0.91594130  0.78133850     0.11200
H1496       H  0.63725345  0.88822894  0.81317843     0.13100
H1497       H  0.67692245  0.88745969  0.78818688     0.09600
H1498       H  0.71033144  0.91364495  0.77469559     0.11700
H1499       H  0.66097270  0.97415182  0.77011773     0.08300
H1500       H  0.62768125  0.94825837  0.78285429     0.11000
C1501       C  0.54885675  0.84711701  0.88692562    -0.03600
C1502       C  0.55991519  0.82723460  0.87537599    -0.06200
C1503       C  0.57985962  0.81537606  0.88624586    -0.21300
C1504       C  0.58904981  0.82326153  0.90894729     0.24500
C1505       C  0.57825805  0.84360777  0.91996694    -0.18800
C1506       C  0.55850823  0.85540007  0.90911399    -0.08800
C1507       C  0.60981957  0.81143494  0.92204635    -0.19100
C1508       C  0.61963045  0.78946444  0.91695911    -0.23900
C1509       C  0.63995852  0.77899116  0.93190258     0.26500
C1510       C  0.65707294  0.76328825  0.92122713    -0.20600
C1511       C  0.67781778  0.75573499  0.93434859    -0.10300
C1512       C  0.68162906  0.76369406  0.95839170    -0.10800
C1513       C  0.66359276  0.77773241  0.96951759    -0.03800
C1514       C  0.64290611  0.78500797  0.95665059    -0.18900
H1515       H  0.55281228  0.82063699  0.85816437     0.10200
H1516       H  0.58787478  0.80014353  0.87683679     0.10300
H1517       H  0.58494229  0.85027882  0.93732327     0.10000
H1518       H  0.55044914  0.87082077  0.91826447     0.11100
H1519       H  0.61730812  0.82167309  0.93722172     0.11200
H1520       H  0.61331375  0.77919415  0.90130739     0.13100
H1521       H  0.65508978  0.75797193  0.90232561     0.09600
H1522       H  0.69165656  0.74525664  0.92517288     0.11700
H1523       H  0.66615139  0.78418523  0.98791329     0.08300
H1524       H  0.62963403  0.79597752  0.96604397     0.11000
C1525       C  0.45924818  0.88428981  0.84430161    -0.03600
C1526       C  0.44836962  0.86772017  0.82815677    -0.06200
C1527       C  0.42661591  0.87347383  0.81607167    -0.21300
C1528       C  0.41526801  0.89605024  0.81961253     0.24500
C1529       C  0.42597394  0.91251437  0.83622843    -0.18800
C1530       C  0.44769544  0.90664668  0.84847041    -0.08800
C1531       C  0.39207841  0.90145145  0.80617019    -0.19100
C1532       C  0.38487446  0.92418490  0.80035847    -0.23900
C1533       C  0.36205867  0.93077684  0.78676519     0.26500
C1534       C  0.35952513  0.95486444  0.77879292    -0.20600
C1535       C  0.33783461  0.96310255  0.76834964    -0.10300
C1536       C  0.31786751  0.94750418  0.76539620    -0.10800
C1537       C  0.32059536  0.92300526  0.77211330    -0.03800
C1538       C  0.34244204  0.91470022  0.78279474    -0.18900
H1539       H  0.45678767  0.85024904  0.82490601     0.10200
H1540       H  0.41874420  0.86030420  0.80367547     0.10300
H1541       H  0.41744002  0.92975700  0.84015270     0.10000
H1542       H  0.45550103  0.91951487  0.86121934     0.11100
H1543       H  0.38146500  0.88609767  0.79983732     0.11200
H1544       H  0.39674719  0.93913244  0.80532366     0.13100
H1545       H  0.37417595  0.96772251  0.78143235     0.09600
H1546       H  0.33632489  0.98211128  0.76352960     0.11700
H1547       H  0.30536462  0.91068024  0.77057955     0.08300
H1548       H  0.34337671  0.89606220  0.78884827     0.11000
C1549       C  0.32535354  0.77610263  0.96185781    -0.03600
C1550       C  0.33477014  0.76212650  0.94273702    -0.06200
C1551       C  0.35637999  0.76904134  0.93142791    -0.21300
C1552       C  0.36884514  0.78999440  0.93903181     0.24500
C1553       C  0.36038141  0.80276015  0.95946739    -0.18800
C1554       C  0.33877235  0.79598840  0.97060308    -0.08800
C1555       C  0.39030509  0.79828989  0.92510236    -0.19100
C1556       C  0.39700454  0.82183639  0.92403809    -0.23900
C1557       C  0.41809720  0.83120414  0.91010112     0.26500
C1558       C  0.42116728  0.85648857  0.90827365    -0.20600
C1559       C  0.44137123  0.86626760  0.89658166    -0.10300
C1560       C  0.45882682  0.85091258  0.88631980    -0.10800
C1561       C  0.45568250  0.82570662  0.88775098    -0.03800
C1562       C  0.43560474  0.81589294  0.89954494    -0.18900
H1563       H  0.32478870  0.74670214  0.93566139     0.10200
H1564       H  0.36279839  0.75862147  0.91602010     0.10300
H1565       H  0.37013763  0.81823318  0.96668992     0.10000
H1566       H  0.33217218  0.80675941  0.98569099     0.11100
H1567       H  0.39964834  0.78474205  0.91437050     0.11200
H1568       H  0.38610032  0.83528716  0.93341155     0.13100
H1569       H  0.40814503  0.86875128  0.91639775     0.09600
H1570       H  0.44383744  0.88575585  0.89635407     0.11700
H1571       H  0.46923690  0.81358958  0.88030047     0.08300
H1572       H  0.43446257  0.79638172  0.90081596     0.11000
C1573       C  0.68298695  0.94422978  0.24176463    -0.03600
C1574       C  0.66221469  0.95906809  0.24117724    -0.06200
C1575       C  0.64095114  0.95132477  0.22957560    -0.21300
C1576       C  0.63970900  0.92848539  0.21831089     0.24500
C1577       C  0.66028556  0.91324287  0.21943851    -0.18800
C1578       C  0.68169261  0.92105275  0.23110237    -0.08800
C1579       C  0.61717994  0.92220412  0.20439173    -0.19100
C1580       C  0.61072489  0.89947674  0.19790312    -0.23900
C1581       C  0.58813806  0.89375203  0.18384279     0.26500
C1582       C  0.57812416  0.87040032  0.18569038    -0.20600
C1583       C  0.55707713  0.86418948  0.17270228    -0.10300
C1584       C  0.54572783  0.88107303  0.15724517    -0.10800
C1585       C  0.55606120  0.90423874  0.15476905    -0.03800
C1586       C  0.57693750  0.91059632  0.16803538    -0.18900
H1587       H  0.66259645  0.97710961  0.24903345     0.10200
H1588       H  0.62551370  0.96350915  0.22897177     0.10300
H1589       H  0.66034682  0.89573549  0.21052681     0.10000
H1590       H  0.69752556  0.90940239  0.23083081     0.11100
H1591       H  0.60498017  0.93708525  0.20004129     0.11200
H1592       H  0.62170045  0.88426945  0.20400271     0.13100
H1593       H  0.58650808  0.85694963  0.19741627     0.09600
H1594       H  0.54961749  0.84612204  0.17465999     0.11700
H1595       H  0.54810618  0.91734182  0.14238849     0.08300
H1596       H  0.58452977  0.92848024  0.16536135     0.11000
C1597       C  0.54749359  0.84360475  0.11863023    -0.03600
C1598       C  0.54899432  0.81815908  0.11860834    -0.06200
C1599       C  0.56994982  0.80648000  0.11054485    -0.21300
C1600       C  0.58978043  0.82017667  0.10237803     0.24500
C1601       C  0.58850029  0.84563918  0.10326315    -0.18800
C1602       C  0.56745029  0.85726722  0.11101684    -0.08800
C1603       C  0.61163736  0.80909054  0.09148438    -0.19100
C1604       C  0.61280031  0.78643620  0.08222532    -0.23900
C1605       C  0.63355355  0.77932908  0.06684369     0.26500
C1606       C  0.64430835  0.75629035  0.06889899    -0.20600
C1607       C  0.66562729  0.75093980  0.05607797    -0.10300
C1608       C  0.67613118  0.76857421  0.04096038    -0.10800
C1609       C  0.66410248  0.79085073  0.03766982    -0.03800
C1610       C  0.64301813  0.79605652  0.05023643    -0.18900
H1611       H  0.53371499  0.80734379  0.12447922     0.10200
H1612       H  0.57037949  0.78686980  0.11061451     0.10300
H1613       H  0.60352073  0.85661026  0.09702913     0.10000
H1614       H  0.56650014  0.87688579  0.11039927     0.11100
H1615       H  0.62707254  0.82107490  0.08894120     0.11200
H1616       H  0.59835678  0.77340251  0.08488748     0.13100
H1617       H  0.63694062  0.74296877  0.08129322     0.09600
H1618       H  0.67452249  0.73364178  0.05898916     0.11700
H1619       H  0.67152749  0.80485033  0.02608204     0.08300
H1620       H  0.63449000  0.81357388  0.04747562     0.11000
C1621       C  0.45567500  0.88328803  0.14883259    -0.03600
C1622       C  0.43898788  0.89417706  0.13290617    -0.06200
C1623       C  0.41796470  0.90494248  0.14196727    -0.21300
C1624       C  0.41326007  0.90513381  0.16710497     0.24500
C1625       C  0.42997479  0.89389063  0.18300681    -0.18800
C1626       C  0.45101314  0.88317728  0.17389782    -0.08800
C1627       C  0.39045223  0.91674083  0.17552095    -0.19100
C1628       C  0.38388868  0.91951871  0.19899780    -0.23900
C1629       C  0.35996143  0.92974049  0.20593534     0.26500
C1630       C  0.35699875  0.94075376  0.22886405    -0.20600
C1631       C  0.33453920  0.95068379  0.23552696    -0.10300
C1632       C  0.31485168  0.94974294  0.21923248    -0.10800
C1633       C  0.31768655  0.93806455  0.19669929    -0.03800
C1634       C  0.33980948  0.92796571  0.19022927    -0.18900
H1635       H  0.44255907  0.89491468  0.11355978     0.10200
H1636       H  0.40542184  0.91337746  0.12926370     0.10300
H1637       H  0.42711083  0.89320491  0.20241152     0.10000
H1638       H  0.46388090  0.87500185  0.18644738     0.11100
H1639       H  0.37848494  0.92356480  0.16132011     0.11200
H1640       H  0.39621998  0.91469703  0.21365248     0.13100
H1641       H  0.37216820  0.94198472  0.24145137     0.09600
H1642       H  0.33272733  0.95958078  0.25301381     0.11700
H1643       H  0.30262011  0.93655527  0.18399849     0.08300
H1644       H  0.34083042  0.91852498  0.17299448     0.11000
C1645       C  0.32243435  0.76453522  0.04161943    -0.03600
C1646       C  0.34347730  0.76250244  0.02756407    -0.06200
C1647       C  0.36587852  0.77068092  0.03679241    -0.21300
C1648       C  0.36768919  0.78087691  0.06028083     0.24500
C1649       C  0.34671612  0.78152719  0.07477194    -0.18800
C1650       C  0.32438944  0.77357662  0.06545239    -0.08800
C1651       C  0.39073753  0.79320142  0.06788816    -0.19100
C1652       C  0.39644185  0.79893896  0.09117402    -0.23900
C1653       C  0.41804763  0.81373160  0.09832111     0.26500
C1654       C  0.42821114  0.81068743  0.12165867    -0.20600
C1655       C  0.44805206  0.82470464  0.12927714    -0.10300
C1656       C  0.45798681  0.84230743  0.11385406    -0.10800
C1657       C  0.44747005  0.84596675  0.09077994    -0.03800
C1658       C  0.42773239  0.83177199  0.08303298    -0.18900
H1659       H  0.34231874  0.75612877  0.00894052     0.10200
H1660       H  0.38162628  0.77007596  0.02511971     0.10300
H1661       H  0.34696798  0.78970181  0.09267273     0.10000
H1662       H  0.30824554  0.77595521  0.07635308     0.11100
H1663       H  0.40332167  0.79806774  0.05358113     0.11200
H1664       H  0.38519924  0.79220913  0.10581663     0.13100
H1665       H  0.42093863  0.79720754  0.13394373     0.09600
H1666       H  0.45590694  0.82160528  0.14714634     0.11700
H1667       H  0.45474612  0.85960975  0.07868320     0.08300
H1668       H  0.41987140  0.83522248  0.06526373     0.11000
C1669       C  0.50515799  0.84128052  0.08637645    -0.03600
C1670       C  0.49711408  0.81868808  0.07752657    -0.06200
C1671       C  0.49790916  0.81354409  0.05239967    -0.21300
C1672       C  0.50654230  0.83098533  0.03587338     0.24500
C1673       C  0.51572211  0.85297402  0.04514007    -0.18800
C1674       C  0.51486009  0.85807771  0.06995616    -0.08800
C1675       C  0.50555133  0.82673854  0.00898468    -0.19100
C1676       C  0.50022116  0.84527973  0.99380599    -0.23900
C1677       C  0.50064264  0.84519375  0.96663082     0.26500
C1678       C  0.49475261  0.86715149  0.95510375    -0.20600
C1679       C  0.49596465  0.86947712  0.92996030    -0.10300
C1680       C  0.50294962  0.84988024  0.91533924    -0.10800
C1681       C  0.50859649  0.82756428  0.92647341    -0.03800
C1682       C  0.50751269  0.82521303  0.95205203    -0.18900
H1683       H  0.48978815  0.80535915  0.08992900     0.10200
H1684       H  0.49105583  0.79632230  0.04579040     0.10300
H1685       H  0.52339707  0.86646876  0.03313598     0.10000
H1686       H  0.52138431  0.87551499  0.07637671     0.11100
H1687       H  0.50879059  0.80861429  0.00199211     0.11200
H1688       H  0.49535470  0.86251807  0.00210285     0.13100
H1689       H  0.48946891  0.88289622  0.96566534     0.09600
H1690       H  0.49156845  0.88684311  0.92178669     0.11700
H1691       H  0.51395445  0.81218022  0.91545884     0.08300
H1692       H  0.51226853  0.80799684  0.96022331     0.11000
C1693       C  0.55093171  0.11283121  0.84749149    -0.03600
C1694       C  0.56287514  0.12874632  0.83160164    -0.06200
C1695       C  0.58443168  0.12189958  0.82004842    -0.21300
C1696       C  0.59440968  0.09864822  0.82337931     0.24500
C1697       C  0.58254757  0.08258826  0.83934469    -0.18800
C1698       C  0.56126530  0.08974787  0.85151450    -0.08800
C1699       C  0.61759914  0.09241837  0.81057804    -0.19100
C1700       C  0.62396457  0.06970613  0.80368861    -0.23900
C1701       C  0.64662703  0.06348973  0.78984212     0.26500
C1702       C  0.64775831  0.04116669  0.77745277    -0.20600
C1703       C  0.66903255  0.03367040  0.76570245    -0.10300
C1704       C  0.69012298  0.04807398  0.76627377    -0.10800
C1705       C  0.68881837  0.07081334  0.77800616    -0.03800
C1706       C  0.66739550  0.07844932  0.78959164    -0.18900
H1707       H  0.55549996  0.14665441  0.82817121     0.10200
H1708       H  0.59321028  0.13479027  0.80813163     0.10300
H1709       H  0.58999328  0.06476039  0.84295987     0.10000
H1710       H  0.55298795  0.07728219  0.86419398     0.11100
H1711       H  0.62898635  0.10751438  0.80521555     0.11200
H1712       H  0.61145183  0.05496222  0.80735254     0.13100
H1713       H  0.63221046  0.02915383  0.77728052     0.09600
H1714       H  0.66928173  0.01596832  0.75714705     0.11700
H1715       H  0.70474961  0.08223930  0.77930477     0.08300
H1716       H  0.66763613  0.09556645  0.79924006     0.11000
C1717       C  0.55137729  0.15494752  0.88096302    -0.03600
C1718       C  0.55361143  0.17875730  0.87220502    -0.06200
C1719       C  0.57462399  0.19224273  0.87694491    -0.21300
C1720       C  0.59337874  0.18246464  0.89126817     0.24500
C1721       C  0.59120580  0.15853700  0.89995757    -0.18800
C1722       C  0.57045294  0.14478361  0.89460554    -0.08800
C1723       C  0.61496311  0.19755115  0.89713088    -0.19100
C1724       C  0.62366318  0.19913826  0.92001522    -0.23900
C1725       C  0.64474802  0.21436882  0.92741353     0.26500
C1726       C  0.64607452  0.22247952  0.95158560    -0.20600
C1727       C  0.66706001  0.23361905  0.96052683    -0.10300
C1728       C  0.68748861  0.23653086  0.94563144    -0.10800
C1729       C  0.68567667  0.22991938  0.92094516    -0.03800
C1730       C  0.66444617  0.21893858  0.91186981    -0.18900
H1731       H  0.53905876  0.18685107  0.86161430     0.10200
H1732       H  0.57596415  0.21058308  0.87000430     0.10300
H1733       H  0.60561527  0.15047919  0.91075789     0.10000
H1734       H  0.56905466  0.12641187  0.90143893     0.11100
H1735       H  0.62245931  0.20892981  0.88292428     0.11200
H1736       H  0.61423610  0.18943228  0.93434303     0.13100
H1737       H  0.63114649  0.21930751  0.96390608     0.09600
H1738       H  0.66782023  0.23858454  0.97960330     0.11700
H1739       H  0.70124223  0.23153510  0.90913931     0.08300
H1740       H  0.66413653  0.21261790  0.89320686     0.11000
C1741       C  0.32523084  0.04006811  0.77387318    -0.03600
C1742       C  0.33645762  0.05775445  0.75944328    -0.06200
C1743       C  0.35840662  0.06829354  0.76704432    -0.21300
C1744       C  0.36938074  0.06141692  0.78919047     0.24500
C1745       C  0.35898137  0.04243523  0.80262202    -0.18800
C1746       C  0.33713032  0.03200287  0.79510364    -0.08800
C1747       C  0.39148328  0.07438285  0.79792579    -0.19100
C1748       C  0.39709463  0.07669259  0.82182884    -0.23900
C1749       C  0.41887457  0.08947211  0.83182840     0.26500
C1750       C  0.42211732  0.09028868  0.85727709    -0.20600
C1751       C  0.44266736  0.10117099  0.86768091    -0.10300
C1752       C  0.46036090  0.11162227  0.85281018    -0.10800
C1753       C  0.45708775  0.11115234  0.82745455    -0.03800
C1754       C  0.43661635  0.10025306  0.81702054    -0.18900
H1755       H  0.32772367  0.06426331  0.74297363     0.10200
H1756       H  0.36631710  0.08254622  0.75610426     0.10300
H1757       H  0.36748801  0.03573698  0.81911010     0.10000
H1758       H  0.32917122  0.01800422  0.80633867     0.11100
H1759       H  0.40248517  0.08306002  0.78421528     0.11200
H1760       H  0.38481485  0.06903431  0.83512741     0.13100
H1761       H  0.40889742  0.08204928  0.86919271     0.09600
H1762       H  0.44512570  0.10073728  0.88724791     0.11700
H1763       H  0.47073248  0.11886947  0.81566986     0.08300
H1764       H  0.43521247  0.10011681  0.79741496     0.11000
C1765       C  0.46135725  0.15144073  0.88995421    -0.03600
C1766       C  0.44843277  0.16801355  0.87542846    -0.06200
C1767       C  0.42784367  0.18005590  0.88440792    -0.21300
C1768       C  0.41951829  0.17607871  0.90826182     0.24500
C1769       C  0.43222602  0.15895966  0.92269423    -0.18800
C1770       C  0.45281626  0.14680291  0.91360877    -0.08800
C1771       C  0.39722671  0.18965261  0.91669092    -0.19100
C1772       C  0.38967522  0.19128768  0.94008279    -0.23900
C1773       C  0.36653652  0.20343849  0.94817467     0.26500
C1774       C  0.35618777  0.19578173  0.97014058    -0.20600
C1775       C  0.33380463  0.20490060  0.97785890    -0.10300
C1776       C  0.32119403  0.22265965  0.96443243    -0.10800
C1777       C  0.33205588  0.23155315  0.94310418    -0.03800
C1778       C  0.35443497  0.22193770  0.93495220    -0.18900
H1779       H  0.45451601  0.17190127  0.85714129     0.10200
H1780       H  0.41848458  0.19282221  0.87264854     0.10300
H1781       H  0.42633609  0.15464447  0.94090250     0.10000
H1782       H  0.46227433  0.13392217  0.92515234     0.11100
H1783       H  0.38647494  0.19860009  0.90270919     0.11200
H1784       H  0.40019321  0.18224427  0.95415337     0.13100
H1785       H  0.36494190  0.18179741  0.98093247     0.09600
H1786       H  0.32578342  0.19726582  0.99400422     0.11700
H1787       H  0.32267110  0.24492396  0.93208187     0.08300
H1788       H  0.36200841  0.22882506  0.91822178     0.11000
C1789       C  0.50723244  0.91239553  0.84120984    -0.03600
C1790       C  0.49532448  0.92175924  0.82050261    -0.06200
C1791       C  0.49599154  0.94682491  0.81552215    -0.21300
C1792       C  0.50865005  0.96279696  0.83107774     0.24500
C1793       C  0.52200419  0.95299321  0.85062738    -0.18800
C1794       C  0.52102750  0.92828197  0.85576803    -0.08800
C1795       C  0.50707174  0.98966230  0.82768648    -0.19100
C1796       C  0.50651850  0.00453856  0.84721300    -0.23900
C1797       C  0.50472375  0.03150674  0.84696583     0.26500
C1798       C  0.49811358  0.04277242  0.86883813    -0.20600
C1799       C  0.49806373  0.06790285  0.87101310    -0.10300
C1800       C  0.50467185  0.08266530  0.85139963    -0.10800
C1801       C  0.51075107  0.07172171  0.82910451    -0.03800
C1802       C  0.51083472  0.04620247  0.82688495    -0.18900
H1803       H  0.48502978  0.90986222  0.80862179     0.10200
H1804       H  0.48589567  0.95384853  0.80007437     0.10300
H1805       H  0.53284809  0.96451207  0.86239857     0.10000
H1806       H  0.53061275  0.92161288  0.87171007     0.11100
H1807       H  0.50483996  0.99694026  0.80945478     0.11200
H1808       H  0.50645127  0.99625603  0.86516024     0.13100
H1809       H  0.49334593  0.03202901  0.88460637     0.09600
H1810       H  0.49332299  0.07593800  0.88836589     0.11700
H1811       H  0.51590549  0.08283833  0.81374848     0.08300
H1812       H  0.51634374  0.03811436  0.80984172     0.11000
C1813       C  0.68448863  0.06112970  0.23572178    -0.03600
C1814       C  0.66470956  0.04548374  0.23187649    -0.06200
C1815       C  0.64505420  0.05272058  0.21754047    -0.21300
C1816       C  0.64452957  0.07583746  0.20699275     0.24500
C1817       C  0.66402821  0.09181269  0.21119884    -0.18800
C1818       C  0.68389911  0.08447088  0.22545124    -0.08800
C1819       C  0.62377520  0.08211275  0.19097310    -0.19100
C1820       C  0.61494211  0.10472808  0.18870933    -0.23900
C1821       C  0.59236103  0.10954944  0.17480302     0.26500
C1822       C  0.57561438  0.12635833  0.18393398    -0.20600
C1823       C  0.55322003  0.12963829  0.17233096    -0.10300
C1824       C  0.54752584  0.11656088  0.15115451    -0.10800
C1825       C  0.56475223  0.10075330  0.14118865    -0.03800
C1826       C  0.58695122  0.09707545  0.15305645    -0.18900
H1827       H  0.66469891  0.02731712  0.23939174     0.10200
H1828       H  0.63025261  0.04011163  0.21451449     0.10300
H1829       H  0.66434416  0.10958835  0.20283766     0.10000
H1830       H  0.69910979  0.09670788  0.22774139     0.11100
H1831       H  0.61411074  0.06717234  0.18234516     0.11200
H1832       H  0.62282142  0.11942757  0.19932148     0.13100
H1833       H  0.57954785  0.13634321  0.20050109     0.09600
H1834       H  0.54024257  0.14229410  0.17990942     0.11700
H1835       H  0.56097139  0.09116128  0.12438530     0.08300
H1836       H  0.59987807  0.08453356  0.14523168     0.11000
C1837       C  0.54292167  0.14827296  0.10922964    -0.03600
C1838       C  0.55173361  0.17038618  0.11834228    -0.06200
C1839       C  0.57195348  0.18155599  0.10780358    -0.21300
C1840       C  0.58384198  0.17068395  0.08790796     0.24500
C1841       C  0.57511860  0.14822147  0.07924919    -0.18800
C1842       C  0.55490346  0.13713797  0.08977191    -0.08800
C1843       C  0.60513976  0.18181094  0.07535956    -0.19100
C1844       C  0.61481767  0.20388286  0.08032508    -0.23900
C1845       C  0.63599911  0.21397343  0.06680417     0.26500
C1846       C  0.65132786  0.23110590  0.07815223    -0.20600
C1847       C  0.67249097  0.23926776  0.06659197    -0.10300
C1848       C  0.67861483  0.23040970  0.04345557    -0.10800
C1849       C  0.66243201  0.21462628  0.03149499    -0.03800
C1850       C  0.64129848  0.20670881  0.04286058    -0.18900
H1851       H  0.54276395  0.17911088  0.13350177     0.10200
H1852       H  0.57797536  0.19862948  0.11536529     0.10300
H1853       H  0.58385070  0.13927603  0.06407494     0.10000
H1854       H  0.54841956  0.11998703  0.08259570     0.11100
H1855       H  0.61335012  0.17087567  0.06119174     0.11200
H1856       H  0.60782021  0.21471034  0.09516744     0.13100
H1857       H  0.64749775  0.23735136  0.09643285     0.09600
H1858       H  0.68479248  0.25118875  0.07635036     0.11700
H1859       H  0.66667272  0.20755373  0.01360628     0.08300
H1860       H  0.62945189  0.19453530  0.03291367     0.11000
C1861       C  0.45814943  0.10482450  0.15422637    -0.03600
C1862       C  0.44628182  0.11886750  0.17183970    -0.06200
C1863       C  0.42595245  0.10977932  0.18404791    -0.21300
C1864       C  0.41701361  0.08635521  0.17909352     0.24500
C1865       C  0.42883457  0.07240341  0.16112736    -0.18800
C1866       C  0.44913690  0.08156575  0.14887187    -0.08800
C1867       C  0.39480142  0.07777472  0.19225171    -0.19100
C1868       C  0.38794460  0.05425622  0.19383608    -0.23900
C1869       C  0.36495375  0.04549633  0.20536429     0.26500
C1870       C  0.35615442  0.02256163  0.19848243    -0.20600
C1871       C  0.33395940  0.01399302  0.20713160    -0.10300
C1872       C  0.32011723  0.02773622  0.22354138    -0.10800
C1873       C  0.32935136  0.05015776  0.23157163    -0.03800
C1874       C  0.35152271  0.05903930  0.22250398    -0.18900
H1875       H  0.45278345  0.13693270  0.17612539     0.10200
H1876       H  0.41718602  0.12111590  0.19750669     0.10300
H1877       H  0.42225960  0.05463777  0.15599254     0.10000
H1878       H  0.45773145  0.07057216  0.13502697     0.11100
H1879       H  0.38369348  0.09158108  0.20080647     0.11200
H1880       H  0.39917203  0.04048614  0.18540117     0.13100
H1881       H  0.36600962  0.01158600  0.18548535     0.09600
H1882       H  0.32708734  0.99692411  0.20016222     0.11700
H1883       H  0.31879756  0.06139463  0.24375006     0.08300
H1884       H  0.35783792  0.07656518  0.22873782     0.11000
C1885       C  0.31611890  0.21728915  0.04412850    -0.03600
C1886       C  0.33052699  0.23433768  0.05662000    -0.06200
C1887       C  0.35191096  0.22694766  0.06860046    -0.21300
C1888       C  0.35912086  0.20243526  0.06842791     0.24500
C1889       C  0.34506034  0.18565939  0.05524608    -0.18800
C1890       C  0.32379843  0.19292123  0.04356868    -0.08800
C1891       C  0.38180581  0.19480839  0.08116039    -0.19100
C1892       C  0.38522976  0.17194243  0.08937943    -0.23900
C1893       C  0.40851496  0.16247481  0.09937640     0.26500
C1894       C  0.41237585  0.13724196  0.09917480    -0.20600
C1895       C  0.43440012  0.12740340  0.10718064    -0.10300
C1896       C  0.45286150  0.14261645  0.11595876    -0.10800
C1897       C  0.44889855  0.16777780  0.11672163    -0.03800
C1898       C  0.42691478  0.17766275  0.10861535    -0.18900
H1899       H  0.32510660  0.25321397  0.05745385     0.10200
H1900       H  0.36265710  0.24031495  0.07831620     0.10300
H1901       H  0.35048717  0.16686242  0.05357984     0.10000
H1902       H  0.31333457  0.17922134  0.03401867     0.11100
H1903       H  0.39598739  0.20828804  0.08321234     0.11200
H1904       H  0.37056218  0.15891377  0.08768323     0.13100
H1905       H  0.39852888  0.12511790  0.09214780     0.09600
H1906       H  0.43727068  0.10801208  0.10585699     0.11700
H1907       H  0.46298878  0.17979720  0.12343619     0.08300
H1908       H  0.42450000  0.19710237  0.10970142     0.11000
C1909       C  0.50729462  0.08032580  0.15260685    -0.03600
C1910       C  0.51641808  0.06593628  0.13371827    -0.06200
C1911       C  0.51880032  0.04099865  0.13638619    -0.21300
C1912       C  0.51143561  0.02936528  0.15777331     0.24500
C1913       C  0.50239415  0.04367163  0.17705843    -0.18800
C1914       C  0.50047257  0.06909486  0.17450506    -0.08800
C1915       C  0.51235722  0.00232474  0.15761098    -0.19100
C1916       C  0.50292334  0.98712244  0.17427187    -0.23900
C1917       C  0.50112321  0.96065609  0.16874245     0.26500
C1918       C  0.50569635  0.94296511  0.18667499    -0.20600
C1919       C  0.50529922  0.91810539  0.18062074    -0.10300
C1920       C  0.49997060  0.91078739  0.15663311    -0.10800
C1921       C  0.49434847  0.92844945  0.13915211    -0.03800
C1922       C  0.49480719  0.95299503  0.14510240    -0.18900
H1923       H  0.52113224  0.07403476  0.11641637     0.10200
H1924       H  0.52565128  0.03061642  0.12113450     0.10300
H1925       H  0.49647911  0.03539063  0.19382687     0.10000
H1926       H  0.49308749  0.07984311  0.18921731     0.11100
H1927       H  0.52030441  0.99416064  0.14148346     0.11200
H1928       H  0.49603851  0.99385146  0.19144983     0.13100
H1929       H  0.51026216  0.94840069  0.20509799     0.09600
H1930       H  0.50953145  0.90468688  0.19440043     0.11700
H1931       H  0.48999688  0.92316574  0.12061484     0.08300
H1932       H  0.49029763  0.96604969  0.13105314     0.11000
C1933       C  0.49509198  0.14696022  0.08357699    -0.03600
C1934       C  0.48477234  0.12934008  0.06823366    -0.06200
C1935       C  0.48529603  0.13197727  0.04305429    -0.21300
C1936       C  0.49632904  0.15221152  0.03235974     0.24500
C1937       C  0.50583226  0.17053224  0.04761578    -0.18800
C1938       C  0.50502698  0.16798065  0.07308232    -0.08800
C1939       C  0.49921501  0.15183132  0.00545931    -0.19100
C1940       C  0.50584200  0.17063527  0.99130297    -0.23900
C1941       C  0.50913821  0.16694916  0.96468605     0.26500
C1942       C  0.50047139  0.18409819  0.94776119    -0.20600
C1943       C  0.50076901  0.17891809  0.92267776    -0.10300
C1944       C  0.50999439  0.15662934  0.91439641    -0.10800
C1945       C  0.52009903  0.14034920  0.93126370    -0.03800
C1946       C  0.51985336  0.14548662  0.95605020    -0.18900
H1947       H  0.47727870  0.11281653  0.07575020     0.10200
H1948       H  0.47783741  0.11757215  0.03183520     0.10300
H1949       H  0.51470333  0.18628096  0.04006088     0.10000
H1950       H  0.51296586  0.18192836  0.08450707     0.11100
H1951       H  0.49542210  0.13457675  0.99658186     0.11200
H1952       H  0.50771306  0.18875226  0.99883094     0.13100
H1953       H  0.49239135  0.20088924  0.95401134     0.09600
H1954       H  0.49293437  0.19172575  0.90990729     0.11700
H1955       H  0.52729640  0.12304918  0.92526340     0.08300
H1956       H  0.52741363  0.13225964  0.96855724     0.11000
C1957       C  0.96065506  0.77440770  0.68217408    -0.03600
C1958       C  0.94137707  0.76036275  0.67301588    -0.06200
C1959       C  0.92970567  0.76688775  0.65113162    -0.21300
C1960       C  0.93698468  0.78760178  0.63811635     0.24500
C1961       C  0.95725823  0.80067805  0.64658209    -0.18800
C1962       C  0.96878616  0.79425982  0.66836215    -0.08800
C1963       C  0.92309962  0.79532278  0.61597742    -0.19100
C1964       C  0.92157293  0.81881203  0.60896301    -0.23900
C1965       C  0.90789815  0.82814113  0.58728785     0.26500
C1966       C  0.90765699  0.85336676  0.58325051    -0.20600
C1967       C  0.89598346  0.86327488  0.56287052    -0.10300
C1968       C  0.88401606  0.84820522  0.54611358    -0.10800
C1969       C  0.88397827  0.82303087  0.55005363    -0.03800
C1970       C  0.89576832  0.81303183  0.57041472    -0.18900
H1971       H  0.93466241  0.74502163  0.68325567     0.10200
H1972       H  0.91437844  0.75625525  0.64482147     0.10300
H1973       H  0.96419597  0.81604686  0.63657182     0.10000
H1974       H  0.98381887  0.80529045  0.67471127     0.11100
H1975       H  0.91307519  0.78143081  0.60623504     0.11200
H1976       H  0.93055482  0.83242568  0.62011658     0.13100
H1977       H  0.91694198  0.86550580  0.59573091     0.09600
H1978       H  0.89689508  0.88265963  0.55980791     0.11700
H1979       H  0.87517461  0.81106924  0.53705391     0.08300
H1980       H  0.89555828  0.79354879  0.57247058     0.11000
C1981       C  0.84376300  0.88365719  0.54688210    -0.03600
C1982       C  0.85017343  0.90609630  0.55713014    -0.06200
C1983       C  0.83885941  0.91438627  0.57826570    -0.21300
C1984       C  0.82131697  0.90021668  0.59001965     0.24500
C1985       C  0.81545779  0.87730238  0.58024178    -0.18800
C1986       C  0.82658403  0.86913958  0.55878474    -0.08800
C1987       C  0.80842065  0.91089828  0.61123994    -0.19100
C1988       C  0.79916977  0.89805826  0.62991009    -0.23900
C1989       C  0.78743316  0.91038247  0.65099366     0.26500
C1990       C  0.79138122  0.90183659  0.67479521    -0.20600
C1991       C  0.78263468  0.91488112  0.69492267    -0.10300
C1992       C  0.76938317  0.93651351  0.69158296    -0.10800
C1993       C  0.76402299  0.94401353  0.66766424    -0.03800
C1994       C  0.77295030  0.93115227  0.64764808    -0.18900
H1995       H  0.86360502  0.91743349  0.54844402     0.10200
H1996       H  0.84370389  0.93208893  0.58538626     0.10300
H1997       H  0.80173237  0.86610326  0.58861772     0.10000
H1998       H  0.82144561  0.85172912  0.55116927     0.11100
H1999       H  0.80770961  0.93059346  0.61213117     0.11200
H2000       H  0.80189805  0.87854829  0.63067399     0.13100
H2001       H  0.80225867  0.88572752  0.67786586     0.09600
H2002       H  0.78718502  0.90863016  0.71307933     0.11700
H2003       H  0.75378844  0.96049093  0.66437144     0.08300
H2004       H  0.76892612  0.93778718  0.62951288     0.11000
C2005       C  0.84418744  0.88621737  0.45553338    -0.03600
C2006       C  0.85872599  0.89874536  0.43890642    -0.06200
C2007       C  0.84848699  0.90953081  0.41821886    -0.21300
C2008       C  0.82332809  0.90865365  0.41382042     0.24500
C2009       C  0.80865973  0.89615862  0.43056662    -0.18800
C2010       C  0.81903031  0.88514113  0.45122120    -0.08800
C2011       C  0.81365215  0.92158705  0.39187383    -0.19100
C2012       C  0.78998268  0.92578172  0.38665444    -0.23900
C2013       C  0.78226075  0.94035146  0.36500334     0.26500
C2014       C  0.76015596  0.93533606  0.35300854    -0.20600
C2015       C  0.75363129  0.94776223  0.33155412    -0.10300
C2016       C  0.76907218  0.96556014  0.32192169    -0.10800
C2017       C  0.79029480  0.97164344  0.33490646    -0.03800
C2018       C  0.79675439  0.95933260  0.35616484    -0.18900
H2019       H  0.87792360  0.90102105  0.44236262     0.10200
H2020       H  0.86028032  0.91920971  0.40588966     0.10300
H2021       H  0.78925434  0.89486686  0.42799566     0.10000
H2022       H  0.80737159  0.87599188  0.46407034     0.11100
H2023       H  0.82715973  0.92849236  0.37937021     0.11200
H2024       H  0.77587132  0.91822191  0.39798367     0.13100
H2025       H  0.74842020  0.92110058  0.35968314     0.09600
H2026       H  0.73724057  0.94259303  0.32187987     0.11700
H2027       H  0.80240103  0.98554482  0.32817103     0.08300
H2028       H  0.81329522  0.96460443  0.36548358     0.11000
C2029       C  0.88308502  0.84844213  0.45572950    -0.03600
C2030       C  0.87244695  0.82715365  0.44659313    -0.06200
C2031       C  0.88184799  0.81569591  0.42587451    -0.21300
C2032       C  0.90211891  0.82548026  0.41382214     0.24500
C2033       C  0.91242531  0.84702951  0.42296405    -0.18800
C2034       C  0.90318133  0.85825289  0.44377044    -0.08800
C2035       C  0.91369611  0.81393428  0.39215744    -0.19100
C2036       C  0.90670830  0.79290076  0.38151499    -0.23900
C2037       C  0.91962187  0.78244026  0.36012367     0.26500
C2038       C  0.90673048  0.76849860  0.34291661    -0.20600
C2039       C  0.91812189  0.75999075  0.32175709    -0.10300
C2040       C  0.94276570  0.76496755  0.31759536    -0.10800
C2041       C  0.95595108  0.77761492  0.33560012    -0.03800
C2042       C  0.94458383  0.78618475  0.35658288    -0.18900
H2043       H  0.85706934  0.81918016  0.45578014     0.10200
H2044       H  0.87323909  0.79918761  0.41969539     0.10300
H2045       H  0.92801500  0.85505383  0.41419023     0.10000
H2046       H  0.91185650  0.87452072  0.45064333     0.11100
H2047       H  0.92896454  0.82360695  0.38444280     0.11200
H2048       H  0.89070097  0.78344495  0.38774030     0.13100
H2049       H  0.88757495  0.76498764  0.34538944     0.09600
H2050       H  0.90742160  0.75035546  0.30825907     0.11700
H2051       H  0.97499927  0.78161245  0.33315628     0.08300
H2052       H  0.95542112  0.79589936  0.36989300     0.11000
C2053       C  0.88779678  0.15420999  0.54372540    -0.03600
C2054       C  0.88674776  0.17960500  0.54145930    -0.06200
C2055       C  0.89607479  0.19459651  0.55969209    -0.21300
C2056       C  0.90587252  0.18456932  0.58096878     0.24500
C2057       C  0.90585910  0.15918250  0.58394376    -0.18800
C2058       C  0.89711664  0.14406438  0.56529118    -0.08800
C2059       C  0.91791195  0.20082576  0.59875028    -0.19100
C2060       C  0.91552591  0.19801230  0.62284490    -0.23900
C2061       C  0.92871924  0.21328443  0.64075951     0.26500
C2062       C  0.91778639  0.21835516  0.66313970    -0.20600
C2063       C  0.93105446  0.22942581  0.68181577    -0.10300
C2064       C  0.95562658  0.23507488  0.67862488    -0.10800
C2065       C  0.96628421  0.23132077  0.65586036    -0.03800
C2066       C  0.95286541  0.22064241  0.63692292    -0.18900
H2067       H  0.87963502  0.18782352  0.52497480     0.10200
H2068       H  0.89598472  0.21407865  0.55702309     0.10300
H2069       H  0.91377468  0.15103611  0.60008518     0.10000
H2070       H  0.89868432  0.12458246  0.56724406     0.11100
H2071       H  0.92830543  0.21602054  0.59177145     0.11200
H2072       H  0.90316535  0.18430029  0.62969711     0.13100
H2073       H  0.89925816  0.21281680  0.66651185     0.09600
H2074       H  0.92264662  0.23186261  0.69941621     0.11700
H2075       H  0.98524434  0.23543783  0.65315788     0.08300
H2076       H  0.96187938  0.21664725  0.61993221     0.11000
C2077       C  0.85290430  0.11216853  0.54578655    -0.03600
C2078       C  0.85952130  0.09037620  0.55721593    -0.06200
C2079       C  0.84646061  0.08182997  0.57723634    -0.21300
C2080       C  0.82671015  0.09500420  0.58657716     0.24500
C2081       C  0.82053600  0.11725993  0.57551924    -0.18800
C2082       C  0.83353132  0.12570934  0.55530717    -0.08800
C2083       C  0.81239322  0.08406444  0.60683170    -0.19100
C2084       C  0.79816497  0.09656871  0.62242736    -0.23900
C2085       C  0.78539994  0.08451425  0.64309993     0.26500
C2086       C  0.78259329  0.09684026  0.66534473    -0.20600
C2087       C  0.77327054  0.08485315  0.68583370    -0.10300
C2088       C  0.76598323  0.06041249  0.68433436    -0.10800
C2089       C  0.76691311  0.04881830  0.66146942    -0.03800
C2090       C  0.77658103  0.06064207  0.64118558    -0.18900
H2091       H  0.87433531  0.07960563  0.55012979     0.10200
H2092       H  0.85162102  0.06462343  0.58528016     0.10300
H2093       H  0.80520308  0.12773645  0.58181664     0.10000
H2094       H  0.82800400  0.14247519  0.54659424     0.11100
H2095       H  0.81473966  0.06470362  0.60975000     0.11200
H2096       H  0.79737759  0.11621925  0.62132015     0.13100
H2097       H  0.78885562  0.11538000  0.66724090     0.09600
H2098       H  0.77288834  0.09434395  0.70310229     0.11700
H2099       H  0.76150596  0.03002140  0.65949814     0.08300
H2100       H  0.77762535  0.05083931  0.62413074     0.11000
C2101       C  0.89212889  0.14688516  0.45418930    -0.03600
C2102       C  0.91256641  0.13597295  0.44378076    -0.06200
C2103       C  0.92437337  0.14699355  0.42424195    -0.21300
C2104       C  0.91636274  0.16943129  0.41499844     0.24500
C2105       C  0.89541304  0.18003589  0.42505150    -0.18800
C2106       C  0.88340061  0.16879121  0.44445873    -0.08800
C2107       C  0.93020755  0.18060271  0.39461862    -0.19100
C2108       C  0.92982667  0.20442682  0.38865602    -0.23900
C2109       C  0.94380319  0.21443335  0.36770353     0.26500
C2110       C  0.93512210  0.23507711  0.35530443    -0.20600
C2111       C  0.94606025  0.24284096  0.33362694    -0.10300
C2112       C  0.96592291  0.23008607  0.32408455    -0.10800
C2113       C  0.97592360  0.21089437  0.33767312    -0.03800
C2114       C  0.96515708  0.20327488  0.35931137    -0.18900
H2115       H  0.91981088  0.11928815  0.45131883     0.10200
H2116       H  0.94030378  0.13828156  0.41677193     0.10300
H2117       H  0.88825084  0.19695353  0.41808380     0.10000
H2118       H  0.86783167  0.17762318  0.45251068     0.11100
H2119       H  0.94152629  0.16833403  0.38419757     0.11200
H2120       H  0.91826125  0.21684412  0.39861083     0.13100
H2121       H  0.91901198  0.24435435  0.36162292     0.09600
H2122       H  0.93791034  0.25761711  0.32345685     0.11700
H2123       H  0.99147607  0.20098713  0.33089294     0.08300
H2124       H  0.97325881  0.18818250  0.36898426     0.11000
C2125       C  0.76926564  0.04927727  0.31781611    -0.03600
C2126       C  0.77883813  0.07271552  0.31550692    -0.06200
C2127       C  0.78975502  0.08422439  0.33536023    -0.21300
C2128       C  0.79107061  0.07268714  0.35803558     0.24500
C2129       C  0.77991325  0.04985287  0.36088910    -0.18800
C2130       C  0.76924724  0.03809315  0.34075672    -0.08800
C2131       C  0.80678909  0.08364806  0.37714026    -0.19100
C2132       C  0.80227683  0.08223606  0.40107276    -0.23900
C2133       C  0.81858419  0.09360865  0.41945672     0.26500
C2134       C  0.80845220  0.10492602  0.43982980    -0.20600
C2135       C  0.82337265  0.11481412  0.45794251    -0.10300
C2136       C  0.84877667  0.11319375  0.45635534    -0.10800
C2137       C  0.85901617  0.10197612  0.43588367    -0.03800
C2138       C  0.84403577  0.09241922  0.41747871    -0.18900
H2139       H  0.77950437  0.08138993  0.29782478     0.10200
H2140       H  0.79825317  0.10174013  0.33270451     0.10300
H2141       H  0.78101379  0.04035729  0.37810774     0.10000
H2142       H  0.76257432  0.01972178  0.34270838     0.11100
H2143       H  0.82226811  0.09421109  0.37111466     0.11200
H2144       H  0.78558073  0.07385692  0.40723606     0.13100
H2145       H  0.78893718  0.10596342  0.44180963     0.09600
H2146       H  0.81506396  0.12302795  0.47376571     0.11700
H2147       H  0.87843970  0.09952856  0.43467105     0.08300
H2148       H  0.85232031  0.08322307  0.40221224     0.11000
C2149       C  0.85192824  0.08198434  0.49929846    -0.03600
C2150       C  0.86763384  0.06679120  0.48622818    -0.06200
C2151       C  0.86244225  0.04233991  0.48299529    -0.21300
C2152       C  0.84183899  0.03197537  0.49347825     0.24500
C2153       C  0.82614321  0.04685384  0.50712689    -0.18800
C2154       C  0.83100373  0.07185260  0.50972964    -0.08800
C2155       C  0.83814383  0.00558951  0.48939265    -0.19100
C2156       C  0.82773078  0.99020540  0.50523871    -0.23900
C2157       C  0.83156458  0.96348508  0.50305496     0.26500
C2158       C  0.81391940  0.94687387  0.51100390    -0.20600
C2159       C  0.81830776  0.92170563  0.50988424    -0.10300
C2160       C  0.84059799  0.91298456  0.50119277    -0.10800
C2161       C  0.85819829  0.92963042  0.49360321    -0.03800
C2162       C  0.85381150  0.95444759  0.49451304    -0.18900
H2163       H  0.88398082  0.07402973  0.47814970     0.10200
H2164       H  0.87489984  0.03133712  0.47250783     0.10300
H2165       H  0.80995929  0.03938164  0.51523211     0.10000
H2166       H  0.81842292  0.08321437  0.51962159     0.11100
H2167       H  0.84710189  0.99797773  0.47355137     0.11200
H2168       H  0.81800586  0.99712375  0.52090171     0.13100
H2169       H  0.79682592  0.95338492  0.51809737     0.09600
H2170       H  0.80463489  0.90913985  0.51617805     0.11700
H2171       H  0.87576468  0.92332799  0.48747350     0.08300
H2172       H  0.86833247  0.96654039  0.48930541     0.11000
C2173       C  0.15218994  0.12244087  0.54038844    -0.03600
C2174       C  0.17719379  0.12400922  0.54516348    -0.06200
C2175       C  0.18703835  0.11445301  0.56667510    -0.21300
C2176       C  0.17199965  0.10277975  0.58363097     0.24500
C2177       C  0.14689483  0.10182349  0.57899913    -0.18800
C2178       C  0.13707861  0.11153402  0.55761343    -0.08800
C2179       C  0.18136383  0.09193394  0.60664373    -0.19100
C2180       C  0.20486067  0.08645834  0.61126914    -0.23900
C2181       C  0.21301201  0.07595257  0.63495229     0.26500
C2182       C  0.23445294  0.06203980  0.63629070    -0.20600
C2183       C  0.24175546  0.05124338  0.65834856    -0.10300
C2184       C  0.22742855  0.05396525  0.67917635    -0.10800
C2185       C  0.20670717  0.06874441  0.67803950    -0.03800
C2186       C  0.19976322  0.07986437  0.65636998    -0.18900
H2187       H  0.18912156  0.13235317  0.53201704     0.10200
H2188       H  0.20632890  0.11627870  0.56984384     0.10300
H2189       H  0.13484375  0.09311364  0.59179330     0.10000
H2190       H  0.11780558  0.10974847  0.55408958     0.11100
H2191       H  0.16780108  0.08736356  0.62009422     0.11200
H2192       H  0.21835843  0.08871224  0.59718882     0.13100
H2193       H  0.24522872  0.05907465  0.62014598     0.09600
H2194       H  0.25788001  0.03999815  0.65888037     0.11700
H2195       H  0.19570441  0.07163785  0.69406503     0.08300
H2196       H  0.18395654  0.09150072  0.65660128     0.11000
C2197       C  0.11458851  0.16036696  0.53602185    -0.03600
C2198       C  0.12974426  0.17681420  0.54837864    -0.06200
C2199       C  0.12141228  0.18935944  0.56888894    -0.21300
C2200       C  0.09765057  0.18596530  0.57729769     0.24500
C2201       C  0.08275765  0.16883656  0.56528897    -0.18800
C2202       C  0.09122492  0.15609151  0.54499878    -0.08800
C2203       C  0.08944153  0.19957480  0.59929047    -0.19100
C2204       C  0.06587274  0.20324016  0.60451002    -0.23900
C2205       C  0.05729101  0.21327661  0.62802869     0.26500
C2206       C  0.03616626  0.20337296  0.63791622    -0.20600
C2207       C  0.02800116  0.21080255  0.66067383    -0.10300
C2208       C  0.04005557  0.22918605  0.67367860    -0.10800
C2209       C  0.06065878  0.24003435  0.66342241    -0.03800
C2210       C  0.06943606  0.23190796  0.64082117    -0.18900
H2211       H  0.14803348  0.17999755  0.54204736     0.10200
H2212       H  0.13348016  0.20195987  0.57806270     0.10300
H2213       H  0.06476517  0.16468837  0.57176376     0.10000
H2214       H  0.07953450  0.14281528  0.53632814     0.11100
H2215       H  0.10325330  0.20625646  0.61181344     0.11200
H2216       H  0.05198199  0.19671757  0.59204563     0.13100
H2217       H  0.02645892  0.18907980  0.62841677     0.09600
H2218       H  0.01230576  0.20187746  0.66834080     0.11700
H2219       H  0.07052518  0.25391775  0.67333691     0.08300
H2220       H  0.08562657  0.24010648  0.63342895     0.11000
C2221       C  0.11899441  0.15501534  0.44590147    -0.03600
C2222       C  0.10880121  0.14033660  0.42764565    -0.06200
C2223       C  0.09943022  0.15078119  0.40638478    -0.21300
C2224       C  0.09967588  0.17609116  0.40314166     0.24500
C2225       C  0.11018484  0.19073914  0.42135083    -0.18800
C2226       C  0.11963340  0.18026188  0.44255189    -0.08800
C2227       C  0.08943864  0.18627667  0.38023851    -0.19100
C2228       C  0.08226391  0.20955917  0.37734194    -0.23900
C2229       C  0.07196633  0.21849193  0.35391652     0.26500
C2230       C  0.05443398  0.23711383  0.35378038    -0.20600
C2231       C  0.04274953  0.24383872  0.33198477    -0.10300
C2232       C  0.04872045  0.23207538  0.31019629    -0.10800
C2233       C  0.06735637  0.21474341  0.31012523    -0.03800
C2234       C  0.07903756  0.20818548  0.33166129    -0.18900
H2235       H  0.10733990  0.12092103  0.43017380     0.10200
H2236       H  0.09149187  0.13906883  0.39262157     0.10300
H2237       H  0.11132766  0.21021903  0.41930480     0.10000
H2238       H  0.12720611  0.19189620  0.45658508     0.11100
H2239       H  0.08671827  0.17355277  0.36535751     0.11200
H2240       H  0.08248725  0.22195569  0.39269739     0.13100
H2241       H  0.04895994  0.24558564  0.37067720     0.09600
H2242       H  0.02819805  0.25706141  0.33237268     0.11700
H2243       H  0.07226627  0.20556667  0.29339173     0.08300
H2244       H  0.09323244  0.19462918  0.33084643     0.11000
C2245       C  0.15598466  0.11590492  0.44980815    -0.03600
C2246       C  0.14907258  0.09303257  0.44094780    -0.06200
C2247       C  0.16095563  0.08275180  0.42100685    -0.21300
C2248       C  0.17986377  0.09515841  0.40928328     0.24500
C2249       C  0.18655929  0.11827947  0.41809988    -0.18800
C2250       C  0.17463966  0.12853423  0.43811102    -0.08800
C2251       C  0.19230215  0.08286905  0.38851652    -0.19100
C2252       C  0.20765020  0.09381618  0.37287819    -0.23900
C2253       C  0.21896184  0.08100615  0.35179427     0.26500
C2254       C  0.22636337  0.09455473  0.33146272    -0.20600
C2255       C  0.23530377  0.08296174  0.31059341    -0.10300
C2256       C  0.23705929  0.05754057  0.30967719    -0.10800
C2257       C  0.23105678  0.04410980  0.33053476    -0.03800
C2258       C  0.22231085  0.05567151  0.35139799    -0.18900
H2259       H  0.13467361  0.08301583  0.44971239     0.10200
H2260       H  0.15539297  0.06493011  0.41477465     0.10300
H2261       H  0.20125097  0.12837793  0.41007323     0.10000
H2262       H  0.18026864  0.14617393  0.44478799     0.11100
H2263       H  0.18767548  0.06396492  0.38549859     0.11200
H2264       H  0.21097748  0.11313560  0.37443337     0.13100
H2265       H  0.22429783  0.11410856  0.33134444     0.09600
H2266       H  0.23949486  0.09377577  0.29471846     0.11700
H2267       H  0.23235570  0.02448440  0.33044171     0.08300
H2268       H  0.21789239  0.04459581  0.36698567     0.11000
C2269       C  0.08707869  0.15671281  0.48785971    -0.03600
C2270       C  0.07305165  0.13746580  0.47878923    -0.06200
C2271       C  0.04796689  0.13931117  0.47712957    -0.21300
C2272       C  0.03587227  0.16028221  0.48494073     0.24500
C2273       C  0.04984352  0.18014826  0.49331231    -0.18800
C2274       C  0.07538374  0.17840053  0.49459189    -0.08800
C2275       C  0.00885869  0.15894179  0.48566224    -0.19100
C2276       C  0.99345558  0.17595350  0.49408529    -0.23900
C2277       C  0.96739721  0.16965909  0.49740240     0.26500
C2278       C  0.94878301  0.18509039  0.48910568    -0.20600
C2279       C  0.92438227  0.17773652  0.49036675    -0.10300
C2280       C  0.91834496  0.15496806  0.50019372    -0.10800
C2281       C  0.93691036  0.14027732  0.50969503    -0.03800
C2282       C  0.96110514  0.14749691  0.50832440    -0.18900
H2283       H  0.08158922  0.12054225  0.47352120     0.10200
H2284       H  0.03787505  0.12373469  0.47053443     0.10300
H2285       H  0.04122128  0.19667604  0.49942919     0.10000
H2286       H  0.08588571  0.19354608  0.50150052     0.11100
H2287       H  0.00094788  0.14175815  0.47991094     0.11200
H2288       H  0.99967553  0.19405521  0.49872056     0.13100
H2289       H  0.95317383  0.20237363  0.48087990     0.09600
H2290       H  0.91031081  0.18957563  0.48334938     0.11700
H2291       H  0.93268372  0.12276692  0.51755098     0.08300
H2292       H  0.97502420  0.13551039  0.51545876     0.11000
C2293       C  0.11613012  0.85112349  0.55060557    -0.03600
C2294       C  0.10634647  0.86465878  0.56985248    -0.06200
C2295       C  0.09751458  0.85299277  0.59062449    -0.21300
C2296       C  0.09851224  0.82757558  0.59280259     0.24500
C2297       C  0.10875676  0.81404624  0.57369876    -0.18800
C2298       C  0.11734302  0.82572754  0.55278880    -0.08800
C2299       C  0.08692439  0.81588894  0.61427885    -0.19100
C2300       C  0.09264135  0.79361655  0.62289375    -0.23900
C2301       C  0.08004485  0.78278586  0.64424582     0.26500
C2302       C  0.09288981  0.76799289  0.66075729    -0.20600
C2303       C  0.08164948  0.75914435  0.68186387    -0.10300
C2304       C  0.05716753  0.76451876  0.68655354    -0.10800
C2305       C  0.04401124  0.77802470  0.66914703    -0.03800
C2306       C  0.05528010  0.78707782  0.64834635    -0.18900
H2307       H  0.10460408  0.88417679  0.56837592     0.10200
H2308       H  0.08945572  0.86385801  0.60489623     0.10300
H2309       H  0.10928622  0.79443017  0.57438354     0.10000
H2310       H  0.12445172  0.81489553  0.53798854     0.11100
H2311       H  0.07346324  0.82656881  0.62391052     0.11200
H2312       H  0.10768279  0.78363857  0.61506465     0.13100
H2313       H  0.11191623  0.76411280  0.65782782     0.09600
H2314       H  0.09233769  0.74890727  0.69490734     0.11700
H2315       H  0.02510507  0.78245882  0.67200983     0.08300
H2316       H  0.04459141  0.79766162  0.63558936     0.11000
C2317       C  0.15370558  0.88982077  0.54831359    -0.03600
C2318       C  0.17236964  0.87513723  0.55766978    -0.06200
C2319       C  0.18648307  0.88302815  0.57744815    -0.21300
C2320       C  0.18239808  0.90587539  0.58803598     0.24500
C2321       C  0.16301672  0.92014913  0.57921081    -0.18800
C2322       C  0.14881180  0.91216217  0.55955701    -0.08800
C2323       C  0.19813486  0.91401372  0.60865587    -0.19100
C2324       C  0.20300324  0.93764095  0.61301319    -0.23900
C2325       C  0.21712521  0.94718407  0.63430283     0.26500
C2326       C  0.21986883  0.97247320  0.63642375    -0.20600
C2327       C  0.22955114  0.98282579  0.65761130    -0.10300
C2328       C  0.23737587  0.96814705  0.67692544    -0.10800
C2329       C  0.23618328  0.94283817  0.67436305    -0.03800
C2330       C  0.22611582  0.93238590  0.65329701    -0.18900
H2331       H  0.17627581  0.85774306  0.54934932     0.10200
H2332       H  0.20099052  0.87149737  0.58415054     0.10300
H2333       H  0.15863607  0.93738490  0.58756836     0.10000
H2334       H  0.13410218  0.92349754  0.55299300     0.11100
H2335       H  0.20628514  0.89999715  0.61985336     0.11200
H2336       H  0.19577885  0.95105228  0.60041898     0.13100
H2337       H  0.21314334  0.98440436  0.62222728     0.09600
H2338       H  0.22937901  0.00234112  0.65958577     0.11700
H2339       H  0.24121503  0.93120050  0.68947281     0.08300
H2340       H  0.22439794  0.91287453  0.65273407     0.11000
C2341       C  0.10851002  0.85360783  0.45987711    -0.03600
C2342       C  0.08707818  0.86337819  0.45013894    -0.06200
C2343       C  0.07623111  0.85296153  0.42957584    -0.21300
C2344       C  0.08620424  0.83219941  0.41859397     0.24500
C2345       C  0.10778612  0.82238586  0.42834896    -0.18800
C2346       C  0.11888945  0.83311877  0.44879467    -0.08800
C2347       C  0.07383102  0.82225598  0.39652609    -0.19100
C2348       C  0.07492656  0.79891105  0.38891990    -0.23900
C2349       C  0.06130684  0.78988365  0.36699976     0.26500
C2350       C  0.06910500  0.76875571  0.35485345    -0.20600
C2351       C  0.05779508  0.76115178  0.33308044    -0.10300
C2352       C  0.03846841  0.77460563  0.32309576    -0.10800
C2353       C  0.02971539  0.79471935  0.33612409    -0.03800
C2354       C  0.04073192  0.80209079  0.35784618    -0.18900
H2355       H  0.07862429  0.87894948  0.45865946     0.10200
H2356       H  0.05970124  0.86096424  0.42241172     0.10300
H2357       H  0.11628717  0.80673819  0.42008104     0.10000
H2358       H  0.13538166  0.82526556  0.45620117     0.11100
H2359       H  0.06277197  0.83510190  0.38644417     0.11200
H2360       H  0.08633610  0.78609106  0.39870068     0.13100
H2361       H  0.08455556  0.75863492  0.36172405     0.09600
H2362       H  0.06491795  0.74554395  0.32348242     0.11700
H2363       H  0.01458000  0.80525409  0.32916295     0.08300
H2364       H  0.03306075  0.81755211  0.36716292     0.11000
C2365       C  0.14652372  0.89193451  0.45824292    -0.03600
C2366       C  0.13138860  0.90442461  0.44187467    -0.06200
C2367       C  0.14099567  0.91527469  0.42100417    -0.21300
C2368       C  0.16600767  0.91418104  0.41609122     0.24500
C2369       C  0.18121942  0.90196858  0.43279547    -0.18800
C2370       C  0.17153797  0.89100076  0.45359166    -0.08800
C2371       C  0.17536592  0.92707846  0.39409722    -0.19100
C2372       C  0.19784194  0.92417450  0.38471164    -0.23900
C2373       C  0.20683065  0.93759630  0.36286376     0.26500
C2374       C  0.22689414  0.92845811  0.34998767    -0.20600
C2375       C  0.23526461  0.94007139  0.32888356    -0.10300
C2376       C  0.22369274  0.96109963  0.32022875    -0.10800
C2377       C  0.20439774  0.97086014  0.33372793    -0.03800
C2378       C  0.19616954  0.95941438  0.35481395    -0.18900
H2379       H  0.11226858  0.90652268  0.44563334     0.10200
H2380       H  0.12883802  0.92493130  0.40882185     0.10300
H2381       H  0.20064048  0.90129838  0.43035670     0.10000
H2382       H  0.18367106  0.88213161  0.46639343     0.11100
H2383       H  0.16265785  0.93905707  0.38491208     0.11200
H2384       H  0.20998908  0.91079593  0.39258907     0.13100
H2385       H  0.23569413  0.91186449  0.35588078     0.09600
H2386       H  0.24994468  0.93194568  0.31870515     0.11700
H2387       H  0.19519225  0.98715565  0.32758598     0.08300
H2388       H  0.18140004  0.96777934  0.36458399     0.11000
C2389       C  0.15749612  0.09106777  0.49812826    -0.03600
C2390       C  0.17956538  0.08156659  0.48960892    -0.06200
C2391       C  0.18411965  0.05641802  0.49086123    -0.21300
C2392       C  0.16674517  0.04055052  0.50072335     0.24500
C2393       C  0.14543496  0.05053942  0.51050414    -0.18800
C2394       C  0.14070859  0.07525498  0.50873720    -0.08800
C2395       C  0.17055904  0.01365898  0.50059917    -0.19100
C2396       C  0.15144612  0.99841421  0.49884417    -0.23900
C2397       C  0.15179009  0.97138190  0.50021107     0.26500
C2398       C  0.12926851  0.95965745  0.49828658    -0.20600
C2399       C  0.12755856  0.93455514  0.49972679    -0.10300
C2400       C  0.14830919  0.92024569  0.50307789    -0.10800
C2401       C  0.17106292  0.93158521  0.50518040    -0.03800
C2402       C  0.17282638  0.95710405  0.50379987    -0.18900
H2403       H  0.19287198  0.09344030  0.48147075     0.10200
H2404       H  0.20086878  0.04928530  0.48354255     0.10300
H2405       H  0.13209934  0.03927069  0.51938086     0.10000
H2406       H  0.12352668  0.08206235  0.51536176     0.11100
H2407       H  0.18893709  0.00665517  0.50147304     0.11200
H2408       H  0.13361915  0.00640248  0.49607875     0.13100
H2409       H  0.11271621  0.96999616  0.49568170     0.09600
H2410       H  0.10984856  0.92613724  0.49811792     0.11700
H2411       H  0.18728236  0.92076574  0.50778132     0.08300
H2412       H  0.19050082  0.96543516  0.50553991     0.11000
C2413       C  0.08399450  0.84879613  0.50776738    -0.03600
C2414       C  0.07468860  0.82778255  0.49658111    -0.06200
C2415       C  0.04960897  0.82305126  0.49681173    -0.21300
C2416       C  0.03344038  0.83909555  0.50837721     0.24500
C2417       C  0.04315207  0.85924399  0.52085628    -0.18800
C2418       C  0.06793489  0.86419882  0.52015361    -0.08800
C2419       C  0.00662856  0.83483593  0.50675078    -0.19100
C2420       C  0.99045665  0.85317997  0.50863713    -0.23900
C2421       C  0.96356634  0.85125623  0.50581938     0.26500
C2422       C  0.95060381  0.87304310  0.50318084    -0.20600
C2423       C  0.92543782  0.87304861  0.50109120    -0.10300
C2424       C  0.91236201  0.85127264  0.50153025    -0.10800
C2425       C  0.92498070  0.82925578  0.50416299    -0.03800
C2426       C  0.95049641  0.82921302  0.50630803    -0.18900
H2427       H  0.08667961  0.81541100  0.48717688     0.10200
H2428       H  0.04274992  0.80718321  0.48737311     0.10300
H2429       H  0.03173366  0.87149514  0.53105372     0.10000
H2430       H  0.07456689  0.88054833  0.52891940     0.11100
H2431       H  0.00035918  0.81670064  0.50230182     0.11200
H2432       H  0.99733235  0.87146062  0.51109047     0.13100
H2433       H  0.95999772  0.89030422  0.50286669     0.09600
H2434       H  0.91598836  0.89023902  0.49938926     0.11700
H2435       H  0.91512660  0.81228832  0.50491042     0.08300
H2436       H  0.95975091  0.81207183  0.50876862     0.11000
loop_ 
_geom_bond_atom_site_label_1 
_geom_bond_atom_site_label_2 
_geom_bond_distance 
_geom_bond_site_symmetry_2 
_ccdc_geom_bond_type 
C1            C2   1.421       .  A
C1            C6   1.420       .  A
C1         C2413   1.497       .  S
C2            C3   1.419       .  A
C2         C2341   1.486       .  S
C3            C4   1.415       .  A
C3         C2365   1.494       .  S
C4            C5   1.415       .  A
C4         C2400   1.487       .  S
C5            C6   1.419       .  A
C5         C2317   1.487       .  S
C6         C2293   1.495       .  S
C7            C8   1.416       .  A
C7           C12   1.418       .  A
C7         C2389   1.494       .  S
C8            C9   1.418       .  A
C8         C2245   1.488       .  S
C9           C10   1.416       .  A
C9         C2221   1.486       .  S
C10          C11   1.416       .  A
C10        C2269   1.494       .  S
C11          C12   1.418       .  A
C11        C2197   1.490       .  S
C12        C2173   1.488       .  S
C13          C14   1.415       .  A
C13          C18   1.419       .  A
C13        C2280   1.495       .  S
C14          C15   1.415       .  A
C14        C2101   1.486       .  S
C15          C16   1.418       .  A
C15        C2136   1.491       .  S
C16          C17   1.417       .  A
C16        C2149   1.495       .  S
C17          C18   1.421       .  A
C17        C2077   1.491       .  S
C18        C2053   1.488       .  S
C19          C20   1.414       .  A
C19          C24   1.414       .  A
C19        C2424   1.488       .  S
C20          C21   1.418       .  A
C20        C2029   1.487       .  S
C21          C22   1.419       .  A
C21        C2005   1.497       .  S
C22          C23   1.421       .  A
C22        C2160   1.489       .  S
C23          C24   1.418       .  A
C23        C1981   1.491       .  S
C24        C1968   1.489       .  S
C25          C26   1.413       .  A
C25          C30   1.420       .  A
C25        C1933   1.494       .  S
C26          C27   1.410       .  A
C26        C1837   1.489       .  S
C27          C28   1.417       .  A
C27        C1824   1.478       .  S
C28          C29   1.416       .  A
C28        C1909   1.489       .  S
C29          C30   1.421       .  A
C29        C1861   1.496       .  S
C30        C1896   1.485       .  S
C31          C32   1.418       .  A
C31          C36   1.420       .  A
C31        C1944   1.485       .  S
C32          C33   1.420       .  A
C32        C1765   1.507       .  S
C33          C34   1.424       .  A
C33        C1752   1.488       .  S
C34          C35   1.420       .  A
C34        C1800   1.490       .  S
C35          C36   1.420       .  A
C35        C1693   1.507       .  S
C36        C1717   1.487       .  S
C37          C38   1.418       .  A
C37          C42   1.414       .  A
C37        C1920   1.490       .  S
C38          C39   1.417       .  A
C38        C1621   1.481       .  S
C39          C40   1.411       .  A
C39        C1656   1.490       .  S
C40          C41   1.416       .  A
C40        C1669   1.493       .  S
C41          C42   1.419       .  A
C41        C1597   1.483       .  S
C42        C1584   1.494       .  S
C43          C44   1.418       .  A
C43          C48   1.426       .  A
C43        C1789   1.497       .  S
C44          C45   1.415       .  A
C44        C1525   1.496       .  S
C45          C46   1.416       .  A
C45        C1560   1.486       .  S
C46          C47   1.418       .  A
C46        C1680   1.493       .  S
C47          C48   1.425       .  A
C47        C1501   1.492       .  S
C48        C1477   1.500       .  S
C49          C50   1.415       .  A
C49          C54   1.420       .  A
C49        C1464   1.492       .  S
C50          C51   1.416       .  A
C50        C1344   1.495       .  S
C51          C52   1.419       .  A
C51        C1368   1.484       .  S
C52          C53   1.420       .  A
C52        C1440   1.493       .  S
C53          C54   1.422       .  A
C53        C1416   1.506       .  S
C54        C1381   1.483       .  S
C55          C56   1.412       .  A
C55          C60   1.414       .  A
C55        C1429   1.491       .  S
C56          C57   1.415       .  A
C56        C1285   1.485       .  S
C57          C58   1.420       .  A
C57        C1272   1.488       .  S
C58          C59   1.424       .  A
C58        C1320   1.495       .  S
C59          C60   1.421       .  A
C59        C1213   1.490       .  S
C60        C1237   1.493       .  S
C61          C62   1.414       .  A
C61          C66   1.412       .  A
C61        C1309   1.493       .  S
C62          C63   1.415       .  A
C62        C1152   1.481       .  S
C63          C64   1.414       .  A
C63        C1176   1.488       .  S
C64          C65   1.414       .  A
C64        C1189   1.486       .  S
C65          C66   1.413       .  A
C65        C1117   1.483       .  S
C66        C1093   1.480       .  S
C67          C68   1.418       .  A
C67          C72   1.415       .  A
C67        C1453   1.484       .  S
C68          C69   1.419       .  A
C68        C1045   1.491       .  S
C69          C70   1.416       .  A
C69        C1080   1.496       .  S
C70          C71   1.414       .  A
C70        C1200   1.482       .  S
C71          C72   1.416       .  A
C71        C1021   1.489       .  S
C72        C1008   1.489       .  S
O73          C81   1.261       .  A
O73         Co93   1.968   1_565  S
O74          C82   1.270       .  A
O74         Co94   1.978       .  S
O75          C83   1.290       .  A
O75         Co95   2.092       .  S
O76          C84   1.275       .  A
O76         Co96   2.024       .  S
O77          C83   1.270       .  A
O77         Co94   1.900   1_565  S
O78          C84   1.265       .  A
O78         Co93   1.966       .  S
O79          C82   1.276       .  A
O79         Co96   2.012       .  S
O80          C81   1.268       .  A
O80         Co95   2.011       .  S
C81         C984   1.476       .  S
C82         C936   1.477       .  S
C83         C901   1.471       .  S
C84         C949   1.479       .  S
O85          C98   1.273       .  A
O85         Co93   2.001       .  S
O86          C99   1.294       .  A
O86         Co94   2.105   1_565  S
O87         C100   1.276       .  A
O87         Co95   1.981       .  S
O88         C101   1.272       .  A
O88         Co96   1.996       .  S
O89         C101   1.268       .  A
O89         Co94   1.987       .  S
O90         C100   1.277       .  A
O90         Co93   2.012   1_565  S
O91          C98   1.272       .  A
O91         Co96   1.990       .  S
O92          C99   1.274       .  A
O92         Co95   1.921       .  S
Co93         O97   2.000       .  S
Co94         O97   1.982       .  S
Co95         O97   2.008   1_565  S
Co96         O97   2.036       .  S
C98        C2184   1.474       .  S
C99        C1536   1.489       .  S
C100       C2328   1.469       .  S
C101       C1741   1.479       .  S
O102        C110   1.266       .  A
O102       Co122   1.973       .  S
O103        C111   1.270       .  A
O103       Co123   1.915       .  S
O104        C112   1.278       .  A
O104       Co124   2.015       .  S
O105        C113   1.265       .  A
O105       Co125   2.003       .  S
O106        C112   1.267       .  A
O106       Co123   1.962   1_455  S
O107        C113   1.261       .  A
O107       Co122   1.977   1_655  S
O108        C111   1.290       .  A
O108       Co125   2.095       .  S
O109        C110   1.273       .  A
O109       Co124   2.011       .  S
C110        C960   1.478       .  S
C111        C829   1.484       .  S
C112        C864   1.473       .  S
C113        C888   1.470       .  S
O114        C127   1.281       .  A
O114       Co122   2.023   1_655  S
O115        C128   1.271       .  A
O115       Co123   1.998   1_455  S
O116        C129   1.273       .  A
O116       Co124   1.991       .  S
O117        C130   1.272       .  A
O117       Co125   1.919       .  S
O118        C130   1.291       .  A
O118       Co123   2.091       .  S
O119        C129   1.272       .  A
O119       Co122   1.999       .  S
O120        C127   1.273       .  A
O120       Co125   1.970       .  S
O121        C128   1.269       .  A
O121       Co124   1.989       .  S
Co122       O126   2.005       .  S
Co123       O126   1.985   1_655  S
Co124       O126   2.039       .  S
Co125       O126   2.009   1_655  S
C127       C2064   1.465       .  S
C128       C1392   1.479       .  S
C129       C2208   1.478       .  S
C130       C1056   1.480       .  S
O131        C139   1.271       .  A
O131       Co151   1.980   1_455  S
O132        C140   1.263       .  A
O132       Co152   1.979       .  S
O133        C141   1.274       .  A
O133       Co153   2.018       .  S
O134        C142   1.290       .  A
O134       Co154   2.094       .  S
O135        C141   1.261       .  A
O135       Co152   1.956   1_455  S
O136        C142   1.270       .  A
O136       Co151   1.898       .  S
O137        C140   1.270       .  A
O137       Co154   2.016       .  S
O138        C139   1.278       .  A
O138       Co153   2.017       .  S
C139        C768   1.484       .  S
C140        C781   1.484       .  S
C141        C805   1.472       .  S
C142        C744   1.468       .  S
O143        C156   1.299       .  A
O143       Co151   2.118       .  S
O144        C157   1.276       .  A
O144       Co152   2.016   1_455  S
O145        C158   1.272       .  A
O145       Co153   2.003       .  S
O146        C159   1.274       .  A
O146       Co154   1.981       .  S
O147        C159   1.275       .  A
O147       Co152   2.000       .  S
O148        C158   1.267       .  A
O148       Co151   1.988   1_455  S
O149        C156   1.273       .  A
O149       Co154   1.901       .  S
O150        C157   1.273       .  A
O150       Co153   1.988       .  S
Co151       O155   1.980   1_655  S
Co152       O155   2.007   1_655  S
Co153       O155   2.038       .  S
Co154       O155   1.994   1_655  S
C156       C2040   1.487       .  S
C157       C1224   1.477       .  S
C158       C2352   1.485       .  S
C159       C1104   1.468       .  S
O160        C168   1.274       .  A
O160       Co180   2.012       .  S
O161        C169   1.267       .  A
O161       Co181   1.982   1_556  S
O162        C170   1.273       .  A
O162       Co182   1.892       .  S
O163        C171   1.272       .  A
O163       Co183   1.977       .  S
O164        C170   1.301       .  A
O164       Co181   2.132       .  S
O165        C171   1.276       .  A
O165       Co180   2.008   1_556  S
O166        C169   1.272       .  A
O166       Co183   2.002       .  S
O167        C168   1.274       .  A
O167       Co182   1.992       .  S
C168       C1645   1.476       .  S
C169       C1357   1.480       .  S
C170       C1248   1.485       .  S
C171       C1549   1.476       .  S
O172        C185   1.261       .  A
O172       Co180   1.955   1_556  S
O173        C186   1.271       .  A
O173       Co181   1.902       .  S
O174        C187   1.270       .  A
O174       Co182   2.012       .  S
O175        C188   1.276       .  A
O175       Co183   2.010       .  S
O176        C188   1.273       .  A
O176       Co181   1.985   1_556  S
O177        C187   1.263       .  A
O177       Co180   1.972       .  S
O178        C185   1.274       .  A
O178       Co183   2.017       .  S
O179        C186   1.291       .  A
O179       Co182   2.108       .  S
Co180       O184   2.008   1_554  S
Co181       O184   1.979   1_554  S
Co182       O184   1.980   1_554  S
Co183       O184   2.037       .  S
C185        C912   1.471       .  S
C186        C816   1.472       .  S
C187        C696   1.478       .  S
C188        C709   1.479       .  S
O189        C197   1.276       .  A
O189       Co209   2.007   1_455  S
O190        C198   1.266       .  A
O190       Co210   1.982   1_655  S
O191        C199   1.272       .  A
O191       Co211   1.910       .  S
O192        C200   1.274       .  A
O192       Co212   1.988       .  S
O193        C199   1.297       .  A
O193       Co210   2.115       .  S
O194        C200   1.275       .  A
O194       Co209   2.007       .  S
O195        C198   1.270       .  A
O195       Co212   1.995       .  S
O196        C197   1.273       .  A
O196       Co211   1.982       .  S
C197       C2232   1.466       .  S
C198       C1141   1.471       .  S
C199       C1261   1.484       .  S
C200       C2112   1.481       .  S
O201        C214   1.264       .  A
O201       Co209   1.967       .  S
O202        C215   1.268       .  A
O202       Co210   1.906       .  S
O203        C216   1.269       .  A
O203       Co211   2.004       .  S
O204        C217   1.277       .  A
O204       Co212   2.015       .  S
O205        C217   1.272       .  A
O205       Co210   1.973   1_655  S
O206        C216   1.261       .  A
O206       Co209   1.968   1_455  S
O207        C214   1.273       .  A
O207       Co212   2.017       .  S
O208        C215   1.294       .  A
O208       Co211   2.113       .  S
Co209       O213   2.005       .  S
Co210       O213   1.981   1_455  S
Co211       O213   2.001   1_455  S
Co212       O213   2.039       .  S
C214        C648   1.477       .  S
C215        C589   1.483       .  S
C216        C661   1.471       .  S
C217        C613   1.478       .  S
O218        C226   1.266       .  A
O218       Co238   1.984   1_565  S
O219        C227   1.277       .  A
O219       Co239   2.011   1_545  S
O220        C228   1.273       .  A
O220       Co240   1.985       .  S
O221        C229   1.273       .  A
O221       Co241   1.902       .  S
O222        C228   1.275       .  A
O222       Co239   2.001       .  S
O223        C229   1.298       .  A
O223       Co238   2.118       .  S
O224        C227   1.281       .  A
O224       Co241   2.000       .  S
O225        C226   1.274       .  A
O225       Co240   2.003       .  S
C226       C2376   1.484       .  S
C227       C1872   1.486       .  S
C228       C1632   1.472       .  S
C229       C2256   1.483       .  S
O230        C243   1.270       .  A
O230       Co238   1.894       .  S
O231        C244   1.268       .  A
O231       Co239   1.974       .  S
O232        C245   1.276       .  A
O232       Co240   2.009       .  S
O233        C246   1.267       .  A
O233       Co241   1.990       .  S
O234        C246   1.269       .  A
O234       Co239   1.994   1_545  S
O235        C245   1.274       .  A
O235       Co238   1.988   1_565  S
O236        C243   1.294       .  A
O236       Co241   2.111       .  S
O237        C244   1.274       .  A
O237       Co240   2.014       .  S
Co238       O242   1.981   1_545  S
Co239       O242   2.015       .  S
Co240       O242   2.034       .  S
Co241       O242   1.985   1_545  S
C243        C672   1.473       .  S
C244        C685   1.478       .  S
C245        C757   1.480       .  S
C246        C565   1.479       .  S
O247        C255   1.263       .  A
O247       Co267   1.967   1_554  S
O248        C256   1.267       .  A
O248       Co268   1.896       .  S
O249        C257   1.278       .  A
O249       Co269   2.024       .  S
O250        C258   1.268       .  A
O250       Co270   2.001       .  S
O251        C257   1.268       .  A
O251       Co268   1.971   1_554  S
O252        C258   1.264       .  A
O252       Co267   1.981       .  S
O253        C256   1.293       .  A
O253       Co270   2.110       .  S
O254        C255   1.272       .  A
O254       Co269   2.015       .  S
C255        C576   1.476       .  S
C256        C853   1.473       .  S
C257        C600   1.481       .  S
C258        C925   1.479       .  S
O259        C272   1.278       .  A
O259       Co267   2.016       .  S
O260        C273   1.265       .  A
O260       Co268   1.983   1_554  S
O261        C274   1.275       .  A
O261       Co269   1.988       .  S
O262        C275   1.275       .  A
O262       Co270   1.913       .  S
O263        C275   1.296       .  A
O263       Co268   2.111       .  S
O264        C274   1.276       .  A
O264       Co267   2.005   1_554  S
O265        C272   1.282       .  A
O265       Co270   2.008       .  S
O266        C273   1.272       .  A
O266       Co269   2.005       .  S
Co267       O271   2.009   1_556  S
Co268       O271   1.982   1_556  S
Co269       O271   2.055       .  S
Co270       O271   2.006   1_556  S
C272       C1776   1.497       .  S
C273       C1296   1.480       .  S
C274       C1885   1.485       .  S
C275       C1405   1.488       .  S
O276        C284   1.268       .  A
O276       Co296   2.004       .  S
O277        C285   1.285       .  A
O277       Co297   2.027   1_565  S
O278        C286   1.277       .  A
O278       Co298   1.938       .  S
O279        C287   1.269       .  A
O279       Co299   1.991       .  S
O280        C286   1.285       .  A
O280       Co297   2.027       .  S
O281        C287   1.271       .  A
O281       Co296   2.005   1_565  S
O282        C285   1.278       .  A
O282       Co299   1.945       .  S
O283        C284   1.263       .  A
O283       Co298   1.986       .  S
C284       C2125   1.468       .  S
C285       C1573   1.486       .  S
C286       C1813   1.476       .  S
C287       C2016   1.484       .  S
O288        C301   1.265       .  A
O288       Co296   1.971   1_565  S
O289        C302   1.251       .  A
O289       Co297   2.001       .  S
O290        C303   1.275       .  A
O290       Co298   2.011       .  S
O291        C304   1.242       .  A
O291       Co299   1.959       .  S
O292        C304   1.252       .  A
O292       Co297   2.004   1_565  S
O293        C303   1.268       .  A
O293       Co296   1.977       .  S
O294        C301   1.272       .  A
O294       Co299   1.998       .  S
O295        C302   1.241       .  A
O295       Co298   1.950       .  S
Co296       O300   2.058       .  S
Co297       O300   2.236       .  S
Co298       O300   1.967       .  S
Co299       O300   1.964   1_565  S
C301        C733   1.463       .  S
C302        C517   1.471       .  S
C303        C637   1.476       .  S
C304        C552   1.471       .  S
O305        C313   1.261       .  A
O305       Co325   1.980   1_554  S
O306        C314   1.279       .  A
O306       Co326   2.013   1_556  S
O307        C315   1.271       .  A
O307       Co327   1.981       .  S
O308        C316   1.273       .  A
O308       Co328   1.918       .  S
O309        C315   1.276       .  A
O309       Co326   2.015       .  S
O310        C316   1.291       .  A
O310       Co325   2.083       .  S
O311        C314   1.278       .  A
O311       Co328   1.990       .  S
O312        C313   1.269       .  A
O312       Co327   2.003       .  S
C313       C1848   1.480       .  S
C314       C1069   1.487       .  S
C315       C1165   1.485       .  S
C316       C1728   1.483       .  S
O317        C330   1.261       .  A
O317       Co325   1.885       .  S
O318        C331   1.262       .  A
O318       Co326   1.964       .  S
O319        C332   1.278       .  A
O319       Co327   2.015       .  S
O320        C333   1.265       .  A
O320       Co328   2.006       .  S
O321        C333   1.260       .  A
O321       Co326   1.976   1_556  S
O322        C332   1.267       .  A
O322       Co325   1.962   1_554  S
O323        C330   1.298       .  A
O323       Co328   2.126       .  S
O324        C331   1.272       .  A
O324       Co327   2.018       .  S
Co325       O329   1.976   1_556  S
Co326       O329   2.006       .  S
Co327       O329   2.055       .  S
Co328       O329   2.028   1_556  S
C330        C493   1.483       .  S
C331        C624   1.478       .  S
C332        C528   1.468       .  S
C333        C840   1.482       .  S
O334        C342   1.297       .  A
O334       Co354   2.111       .  S
O335        C343   1.277       .  A
O335       Co355   2.015   1_655  S
O336        C344   1.277       .  A
O336       Co356   1.990       .  S
O337        C345   1.272       .  A
O337       Co357   2.004       .  S
O338        C344   1.276       .  A
O338       Co355   2.008       .  S
O339        C345   1.266       .  A
O339       Co354   1.986   1_655  S
O340        C343   1.276       .  A
O340       Co357   1.994       .  S
O341        C342   1.274       .  A
O341       Co356   1.907       .  S
C342       C2304   1.489       .  S
C343        C997   1.491       .  S
C344       C1333   1.483       .  S
C345       C1957   1.485       .  S
O346        C359   1.272       .  A
O346       Co354   1.977   1_655  S
O347        C360   1.263       .  A
O347       Co355   1.980       .  S
O348        C361   1.292       .  A
O348       Co356   2.107       .  S
O349        C362   1.273       .  A
O349       Co357   2.013       .  S
O350        C362   1.260       .  A
O350       Co355   1.955   1_655  S
O351        C361   1.269       .  A
O351       Co354   1.900       .  S
O352        C359   1.279       .  A
O352       Co357   2.025       .  S
O353        C360   1.269       .  A
O353       Co356   2.009       .  S
Co354       O358   1.981   1_455  S
Co355       O358   2.004   1_455  S
Co356       O358   2.001   1_455  S
Co357       O358   2.048       .  S
C359        C480   1.483       .  S
C360        C720   1.481       .  S
C361        C973   1.476       .  S
C362        C456   1.470       .  S
O363        C371   1.266       .  A
O363       Co383   2.014   1_545  S
O364        C372   1.294       .  A
O364       Co384   2.109       .  S
O365        C373   1.254       .  A
O365       Co385   1.971       .  S
O366        C374   1.263       .  A
O366       Co386   1.963       .  S
O367        C373   1.264       .  A
O367       Co384   2.024   1_545  S
O368        C374   1.282       .  A
O368       Co383   2.052       .  S
O369        C372   1.260       .  A
O369       Co386   1.880       .  S
O370        C371   1.256       .  A
O370       Co385   1.963       .  S
C371        C877   1.472       .  S
C372        C432   1.467       .  S
C373        C504   1.484       .  S
C374        C469   1.490       .  S
O375        C388   1.254       .  A
O375       Co383   1.971       .  S
O376        C389   1.268       .  A
O376       Co384   1.970   1_545  S
O377        C390   1.279       .  A
O377       Co385   2.042       .  S
O378        C391   1.300       .  A
O378       Co386   2.108       .  S
O379        C391   1.266       .  A
O379       Co384   1.880       .  S
O380        C390   1.264       .  A
O380       Co383   1.962   1_545  S
O381        C388   1.261       .  A
O381       Co386   2.020       .  S
O382        C389   1.281       .  A
O382       Co385   2.048       .  S
Co383       O387   2.055   1_565  S
Co384       O387   2.021   1_565  S
Co385       O387   2.033       .  S
Co386       O387   2.011   1_565  S
C388       C1992   1.490       .  S
C389       C1704   1.500       .  S
C390       C2088   1.493       .  S
C391       C1488   1.473       .  S
O392        C400   1.264       .  A
O392       Co412   1.970       .  S
O393        C401   1.267       .  A
O393       Co413   1.897       .  S
O394        C402   1.277       .  A
O394       Co414   2.015       .  S
O395        C403   1.269       .  A
O395       Co415   2.004       .  S
O396        C402   1.271       .  A
O396       Co413   1.977   1_554  S
O397        C403   1.264       .  A
O397       Co412   1.978   1_556  S
O398        C401   1.292       .  A
O398       Co415   2.103       .  S
O399        C400   1.272       .  A
O399       Co414   2.012       .  S
C400        C541   1.478       .  S
C401        C445   1.468       .  S
C402        C792   1.478       .  S
C403        C421   1.477       .  S
O404        C417   1.276       .  A
O404       Co412   2.010   1_556  S
O405        C418   1.264       .  A
O405       Co413   1.980   1_554  S
O406        C419   1.273       .  A
O406       Co414   1.981       .  S
O407        C420   1.273       .  A
O407       Co415   1.900       .  S
O408        C420   1.299       .  A
O408       Co413   2.115       .  S
O409        C419   1.276       .  A
O409       Co412   1.999       .  S
O410        C417   1.276       .  A
O410       Co415   1.990       .  S
O411        C418   1.271       .  A
O411       Co414   2.005       .  S
Co412       O416   2.007       .  S
Co413       O416   1.978   1_556  S
Co414       O416   2.045       .  S
Co415       O416   1.996   1_556  S
C417       C1512   1.481       .  S
C418       C1128   1.482       .  S
C419       C1608   1.477       .  S
C420       C1032   1.486       .  S
C421        C422   1.404       .  A
C421        C426   1.405       .  A
C422        C423   1.396       .  A
C422        H435   1.083       .  S
C423        C424   1.403       .  A
C423        H436   1.084       .  S
C424        C425   1.405       .  A
C424        C427   1.480       .  S
C425        C426   1.397       .  A
C425        H437   1.082       .  S
C426        H438   1.083       .  S
C427        C428   1.348       .  D
C427        H439   1.086       .  S
C428        C429   1.482       .  S
C428        H440   1.086       .  S
C429        C430   1.405       .  A
C429        C434   1.405       .  A
C430        C431   1.400       .  A
C430        H441   1.083       .  S
C431        C432   1.402       .  A
C431        H442   1.083       .  S
C432        C433   1.403       .  A
C433        C434   1.392       .  A
C433        H443   1.084       .  S
C434        H444   1.082       .  S
C445        C446   1.404       .  A
C445        C450   1.402       .  A
C446        C447   1.387       .  A
C446        H459   1.080       .  S
C447        C448   1.396       .  A
C447        H460   1.084       .  S
C448        C449   1.409       .  A
C448        C451   1.471       .  S
C449        C450   1.399       .  A
C449        H461   1.082       .  S
C450        H462   1.083       .  S
C451        C452   1.337       .  D
C451        H463   1.087       .  S
C452        C453   1.472       .  S
C452        H464   1.086       .  S
C453        C454   1.398       .  A
C453        C458   1.406       .  A
C454        C455   1.394       .  A
C454        H465   1.083       .  S
C455        C456   1.407       .  A
C455        H466   1.083       .  S
C456        C457   1.402       .  A
C457        C458   1.391       .  A
C457        H467   1.083       .  S
C458        H468   1.083       .  S
C469        C470   1.409       .  A
C469        C474   1.406       .  A
C470        C471   1.398       .  A
C470        H483   1.083       .  S
C471        C472   1.402       .  A
C471        H484   1.084       .  S
C472        C473   1.410       .  A
C472        C475   1.491       .  S
C473        C474   1.405       .  A
C473        H485   1.082       .  S
C474        H486   1.083       .  S
C475        C476   1.347       .  D
C475        H487   1.087       .  S
C476        C477   1.490       .  S
C476        H488   1.086       .  S
C477        C478   1.404       .  A
C477        C482   1.408       .  A
C478        C479   1.402       .  A
C478        H489   1.083       .  S
C479        C480   1.405       .  A
C479        H490   1.083       .  S
C480        C481   1.406       .  A
C481        C482   1.402       .  A
C481        H491   1.083       .  S
C482        H492   1.083       .  S
C493        C494   1.407       .  A
C493        C498   1.405       .  A
C494        C495   1.396       .  A
C494        H507   1.083       .  S
C495        C496   1.401       .  A
C495        H508   1.084       .  S
C496        C497   1.411       .  A
C496        C499   1.490       .  S
C497        C498   1.404       .  A
C497        H509   1.081       .  S
C498        H510   1.083       .  S
C499        C500   1.346       .  D
C499        H511   1.084       .  S
C500        C501   1.493       .  S
C500        H512   1.086       .  S
C501        C502   1.402       .  A
C501        C506   1.412       .  A
C502        C503   1.396       .  A
C502        H513   1.084       .  S
C503        C504   1.406       .  A
C503        H514   1.083       .  S
C504        C505   1.405       .  A
C505        C506   1.404       .  A
C505        H515   1.083       .  S
C506        H516   1.080       .  S
C517        C518   1.405       .  A
C517        C522   1.402       .  A
C518        C519   1.388       .  A
C518        H531   1.083       .  S
C519        C520   1.398       .  A
C519        H532   1.084       .  S
C520        C521   1.410       .  A
C520        C523   1.477       .  S
C521        C522   1.403       .  A
C521        H533   1.082       .  S
C522        H534   1.083       .  S
C523        C524   1.341       .  D
C523        H535   1.088       .  S
C524        C525   1.478       .  S
C524        H536   1.086       .  S
C525        C526   1.402       .  A
C525        C530   1.406       .  A
C526        C527   1.399       .  A
C526        H537   1.083       .  S
C527        C528   1.406       .  A
C527        H538   1.084       .  S
C528        C529   1.401       .  A
C529        C530   1.391       .  A
C529        H539   1.084       .  S
C530        H540   1.083       .  S
C541        C542   1.404       .  A
C541        C546   1.406       .  A
C542        C543   1.394       .  A
C542        H555   1.083       .  S
C543        C544   1.402       .  A
C543        H556   1.083       .  S
C544        C545   1.408       .  A
C544        C547   1.483       .  S
C545        C546   1.400       .  A
C545        H557   1.081       .  S
C546        H558   1.083       .  S
C547        C548   1.344       .  D
C547        H559   1.087       .  S
C548        C549   1.479       .  S
C548        H560   1.085       .  S
C549        C550   1.399       .  A
C549        C554   1.408       .  A
C550        C551   1.395       .  A
C550        H561   1.083       .  S
C551        C552   1.406       .  A
C551        H562   1.084       .  S
C552        C553   1.402       .  A
C553        C554   1.400       .  A
C553        H563   1.083       .  S
C554        H564   1.083       .  S
C565        C566   1.405       .  A
C565        C570   1.404       .  A
C566        C567   1.392       .  A
C566        H579   1.083       .  S
C567        C568   1.402       .  A
C567        H580   1.084       .  S
C568        C569   1.411       .  A
C568        C571   1.489       .  S
C569        C570   1.402       .  A
C569        H581   1.080       .  S
C570        H582   1.083       .  S
C571        C572   1.348       .  D
C571        H583   1.084       .  S
C572        C573   1.490       .  S
C572        H584   1.083       .  S
C573        C574   1.404       .  A
C573        C578   1.410       .  A
C574        C575   1.397       .  A
C574        H585   1.083       .  S
C575        C576   1.404       .  A
C575        H586   1.083       .  S
C576        C577   1.403       .  A
C577        C578   1.397       .  A
C577        H587   1.083       .  S
C578        H588   1.080       .  S
C589        C590   1.405       .  A
C589        C594   1.406       .  A
C590        C591   1.393       .  A
C590        H603   1.083       .  S
C591        C592   1.402       .  A
C591        H604   1.084       .  S
C592        C593   1.411       .  A
C592        C595   1.489       .  S
C593        C594   1.405       .  A
C593        H605   1.081       .  S
C594        H606   1.083       .  S
C595        C596   1.347       .  D
C595        H607   1.087       .  S
C596        C597   1.488       .  S
C596        H608   1.084       .  S
C597        C598   1.404       .  A
C597        C602   1.408       .  A
C598        C599   1.402       .  A
C598        H609   1.083       .  S
C599        C600   1.407       .  A
C599        H610   1.083       .  S
C600        C601   1.404       .  A
C601        C602   1.396       .  A
C601        H611   1.083       .  S
C602        H612   1.082       .  S
C613        C614   1.406       .  A
C613        C618   1.404       .  A
C614        C615   1.393       .  A
C614        H627   1.083       .  S
C615        C616   1.400       .  A
C615        H628   1.084       .  S
C616        C617   1.409       .  A
C616        C619   1.482       .  S
C617        C618   1.400       .  A
C617        H629   1.082       .  S
C618        H630   1.083       .  S
C619        C620   1.345       .  D
C619        H631   1.084       .  S
C620        C621   1.487       .  S
C620        H632   1.085       .  S
C621        C622   1.403       .  A
C621        C626   1.410       .  A
C622        C623   1.396       .  A
C622        H633   1.083       .  S
C623        C624   1.405       .  A
C623        H634   1.083       .  S
C624        C625   1.404       .  A
C625        C626   1.398       .  A
C625        H635   1.083       .  S
C626        H636   1.080       .  S
C637        C638   1.404       .  A
C637        C642   1.402       .  A
C638        C639   1.396       .  A
C638        H651   1.083       .  S
C639        C640   1.404       .  A
C639        H652   1.083       .  S
C640        C641   1.411       .  A
C640        C643   1.489       .  S
C641        C642   1.395       .  A
C641        H653   1.079       .  S
C642        H654   1.083       .  S
C643        C644   1.346       .  D
C643        H655   1.085       .  S
C644        C645   1.483       .  S
C644        H656   1.082       .  S
C645        C646   1.402       .  A
C645        C650   1.408       .  A
C646        C647   1.394       .  A
C646        H657   1.083       .  S
C647        C648   1.404       .  A
C647        H658   1.083       .  S
C648        C649   1.406       .  A
C649        C650   1.398       .  A
C649        H659   1.083       .  S
C650        H660   1.081       .  S
C661        C662   1.406       .  A
C661        C666   1.402       .  A
C662        C663   1.395       .  A
C662        H675   1.083       .  S
C663        C664   1.400       .  A
C663        H676   1.083       .  S
C664        C665   1.408       .  A
C664        C667   1.478       .  S
C665        C666   1.393       .  A
C665        H677   1.082       .  S
C666        H678   1.083       .  S
C667        C668   1.341       .  D
C667        H679   1.085       .  S
C668        C669   1.477       .  S
C668        H680   1.086       .  S
C669        C670   1.398       .  A
C669        C674   1.410       .  A
C670        C671   1.389       .  A
C670        H681   1.084       .  S
C671        C672   1.406       .  A
C671        H682   1.081       .  S
C672        C673   1.403       .  A
C673        C674   1.399       .  A
C673        H683   1.083       .  S
C674        H684   1.081       .  S
C685        C686   1.404       .  A
C685        C690   1.405       .  A
C686        C687   1.399       .  A
C686        H699   1.083       .  S
C687        C688   1.404       .  A
C687        H700   1.083       .  S
C688        C689   1.406       .  A
C688        C691   1.484       .  S
C689        C690   1.394       .  A
C689        H701   1.081       .  S
C690        H702   1.083       .  S
C691        C692   1.349       .  D
C691        H703   1.084       .  S
C692        C693   1.484       .  S
C692        H704   1.085       .  S
C693        C694   1.404       .  A
C693        C698   1.406       .  A
C694        C695   1.398       .  A
C694        H705   1.083       .  S
C695        C696   1.404       .  A
C695        H706   1.083       .  S
C696        C697   1.405       .  A
C697        C698   1.395       .  A
C697        H707   1.083       .  S
C698        H708   1.081       .  S
C709        C710   1.403       .  A
C709        C714   1.405       .  A
C710        C711   1.403       .  A
C710        H723   1.083       .  S
C711        C712   1.408       .  A
C711        H724   1.083       .  S
C712        C713   1.407       .  A
C712        C715   1.492       .  S
C713        C714   1.396       .  A
C713        H725   1.081       .  S
C714        H726   1.083       .  S
C715        C716   1.351       .  D
C715        H727   1.085       .  S
C716        C717   1.489       .  S
C716        H728   1.084       .  S
C717        C718   1.405       .  A
C717        C722   1.407       .  A
C718        C719   1.398       .  A
C718        H729   1.083       .  S
C719        C720   1.404       .  A
C719        H730   1.083       .  S
C720        C721   1.407       .  A
C721        C722   1.400       .  A
C721        H731   1.083       .  S
C722        H732   1.081       .  S
C733        C734   1.405       .  A
C733        C738   1.400       .  A
C734        C735   1.395       .  A
C734        H747   1.083       .  S
C735        C736   1.400       .  A
C735        H748   1.083       .  S
C736        C737   1.406       .  A
C736        C739   1.471       .  S
C737        C738   1.388       .  A
C737        H749   1.082       .  S
C738        H750   1.083       .  S
C739        C740   1.337       .  D
C739        H751   1.087       .  S
C740        C741   1.464       .  S
C740        H752   1.087       .  S
C741        C742   1.394       .  A
C741        C746   1.407       .  A
C742        C743   1.384       .  A
C742        H753   1.084       .  S
C743        C744   1.407       .  A
C743        H754   1.083       .  S
C744        C745   1.403       .  A
C745        C746   1.399       .  A
C745        H755   1.083       .  S
C746        H756   1.083       .  S
C757        C758   1.403       .  A
C757        C762   1.406       .  A
C758        C759   1.390       .  A
C758        H771   1.083       .  S
C759        C760   1.401       .  A
C759        H772   1.084       .  S
C760        C761   1.412       .  A
C760        C763   1.488       .  S
C761        C762   1.408       .  A
C761        H773   1.081       .  S
C762        H774   1.083       .  S
C763        C764   1.347       .  D
C763        H775   1.086       .  S
C764        C765   1.491       .  S
C764        H776   1.085       .  S
C765        C766   1.405       .  A
C765        C770   1.407       .  A
C766        C767   1.405       .  A
C766        H777   1.083       .  S
C767        C768   1.407       .  A
C767        H778   1.083       .  S
C768        C769   1.405       .  A
C769        C770   1.394       .  A
C769        H779   1.083       .  S
C770        H780   1.082       .  S
C781        C782   1.403       .  A
C781        C786   1.407       .  A
C782        C783   1.399       .  A
C782        H795   1.083       .  S
C783        C784   1.407       .  A
C783        H796   1.083       .  S
C784        C785   1.409       .  A
C784        C787   1.494       .  S
C785        C786   1.400       .  A
C785        H797   1.079       .  S
C786        H798   1.083       .  S
C787        C788   1.353       .  D
C787        H799   1.084       .  S
C788        C789   1.493       .  S
C788        H800   1.082       .  S
C789        C790   1.407       .  A
C789        C794   1.408       .  A
C790        C791   1.402       .  A
C790        H801   1.083       .  S
C791        C792   1.404       .  A
C791        H802   1.083       .  S
C792        C793   1.404       .  A
C793        C794   1.395       .  A
C793        H803   1.083       .  S
C794        H804   1.081       .  S
C805        C806   1.407       .  A
C805        C810   1.401       .  A
C806        C807   1.397       .  A
C806        H819   1.083       .  S
C807        C808   1.401       .  A
C807        H820   1.083       .  S
C808        C809   1.408       .  A
C808        C811   1.480       .  S
C809        C810   1.391       .  A
C809        H821   1.081       .  S
C810        H822   1.083       .  S
C811        C812   1.342       .  D
C811        H823   1.083       .  S
C812        C813   1.480       .  S
C812        H824   1.086       .  S
C813        C814   1.399       .  A
C813        C818   1.412       .  A
C814        C815   1.386       .  A
C814        H825   1.084       .  S
C815        C816   1.405       .  A
C815        H826   1.082       .  S
C816        C817   1.402       .  A
C817        C818   1.402       .  A
C817        H827   1.083       .  S
C818        H828   1.080       .  S
C829        C830   1.408       .  A
C829        C834   1.406       .  A
C830        C831   1.393       .  A
C830        H843   1.083       .  S
C831        C832   1.399       .  A
C831        H844   1.084       .  S
C832        C833   1.411       .  A
C832        C835   1.486       .  S
C833        C834   1.406       .  A
C833        H845   1.082       .  S
C834        H846   1.083       .  S
C835        C836   1.344       .  D
C835        H847   1.086       .  S
C836        C837   1.488       .  S
C836        H848   1.086       .  S
C837        C838   1.402       .  A
C837        C842   1.409       .  A
C838        C839   1.399       .  A
C838        H849   1.083       .  S
C839        C840   1.407       .  A
C839        H850   1.083       .  S
C840        C841   1.404       .  A
C841        C842   1.400       .  A
C841        H851   1.083       .  S
C842        H852   1.082       .  S
C853        C854   1.405       .  A
C853        C858   1.404       .  A
C854        C855   1.389       .  A
C854        H867   1.083       .  S
C855        C856   1.399       .  A
C855        H868   1.084       .  S
C856        C857   1.409       .  A
C856        C859   1.477       .  S
C857        C858   1.400       .  A
C857        H869   1.081       .  S
C858        H870   1.083       .  S
C859        C860   1.342       .  D
C859        H871   1.087       .  S
C860        C861   1.479       .  S
C860        H872   1.085       .  S
C861        C862   1.402       .  A
C861        C866   1.406       .  A
C862        C863   1.399       .  A
C862        H873   1.083       .  S
C863        C864   1.406       .  A
C863        H874   1.083       .  S
C864        C865   1.403       .  A
C865        C866   1.389       .  A
C865        H875   1.083       .  S
C866        H876   1.082       .  S
C877        C878   1.403       .  A
C877        C882   1.404       .  A
C878        C879   1.395       .  A
C878        H891   1.084       .  S
C879        C880   1.408       .  A
C879        H892   1.080       .  S
C880        C881   1.405       .  A
C880        C883   1.485       .  S
C881        C882   1.397       .  A
C881        H893   1.083       .  S
C882        H894   1.084       .  S
C883        C884   1.347       .  D
C883        H895   1.087       .  S
C884        C885   1.477       .  S
C884        H896   1.083       .  S
C885        C886   1.402       .  A
C885        C890   1.405       .  A
C886        C887   1.396       .  A
C886        H897   1.083       .  S
C887        C888   1.403       .  A
C887        H898   1.083       .  S
C888        C889   1.404       .  A
C889        C890   1.396       .  A
C889        H899   1.082       .  S
C890        H900   1.083       .  S
C901        C902   1.407       .  A
C901        C906   1.402       .  A
C902        C903   1.388       .  A
C902        H915   1.083       .  S
C903        C904   1.397       .  A
C903        H916   1.084       .  S
C904        C905   1.410       .  A
C904        C907   1.475       .  S
C905        C906   1.399       .  A
C905        H917   1.082       .  S
C906        H918   1.083       .  S
C907        C908   1.339       .  D
C907        H919   1.086       .  S
C908        C909   1.477       .  S
C908        H920   1.086       .  S
C909        C910   1.399       .  A
C909        C914   1.408       .  A
C910        C911   1.393       .  A
C910        H921   1.083       .  S
C911        C912   1.406       .  A
C911        H922   1.083       .  S
C912        C913   1.402       .  A
C913        C914   1.393       .  A
C913        H923   1.083       .  S
C914        H924   1.081       .  S
C925        C926   1.407       .  A
C925        C930   1.404       .  A
C926        C927   1.400       .  A
C926        H939   1.083       .  S
C927        C928   1.406       .  A
C927        H940   1.082       .  S
C928        C929   1.403       .  A
C928        C931   1.483       .  S
C929        C930   1.395       .  A
C929        H941   1.084       .  S
C930        H942   1.083       .  S
C931        C932   1.350       .  D
C931        H943   1.081       .  S
C932        C933   1.494       .  S
C932        H944   1.086       .  S
C933        C934   1.409       .  A
C933        C938   1.409       .  A
C934        C935   1.403       .  A
C934        H945   1.083       .  S
C935        C936   1.403       .  A
C935        H946   1.083       .  S
C936        C937   1.402       .  A
C937        C938   1.391       .  A
C937        H947   1.083       .  S
C938        H948   1.078       .  S
C949        C950   1.405       .  A
C949        C954   1.404       .  A
C950        C951   1.397       .  A
C950        H963   1.083       .  S
C951        C952   1.404       .  A
C951        H964   1.083       .  S
C952        C953   1.409       .  A
C952        C955   1.487       .  S
C953        C954   1.397       .  A
C953        H965   1.081       .  S
C954        H966   1.083       .  S
C955        C956   1.348       .  D
C955        H967   1.082       .  S
C956        C957   1.491       .  S
C956        H968   1.085       .  S
C957        C958   1.405       .  A
C957        C962   1.411       .  A
C958        C959   1.396       .  A
C958        H969   1.083       .  S
C959        C960   1.404       .  A
C959        H970   1.083       .  S
C960        C961   1.403       .  A
C961        C962   1.399       .  A
C961        H971   1.083       .  S
C962        H972   1.079       .  S
C973        C974   1.407       .  A
C973        C978   1.404       .  A
C974        C975   1.391       .  A
C974        H987   1.083       .  S
C975        C976   1.398       .  A
C975        H988   1.084       .  S
C976        C977   1.409       .  A
C976        C979   1.479       .  S
C977        C978   1.401       .  A
C977        H989   1.082       .  S
C978        H990   1.083       .  S
C979        C980   1.341       .  D
C979        H991   1.086       .  S
C980        C981   1.480       .  S
C980        H992   1.086       .  S
C981        C982   1.400       .  A
C981        C986   1.409       .  A
C982        C983   1.393       .  A
C982        H993   1.083       .  S
C983        C984   1.406       .  A
C983        H994   1.083       .  S
C984        C985   1.404       .  A
C985        C986   1.399       .  A
C985        H995   1.083       .  S
C986        H996   1.082       .  S
C997        C998   1.405       .  A
C997       C1002   1.408       .  A
C998        C999   1.407       .  A
C998       H1011   1.083       .  S
C999       C1000   1.410       .  A
C999       H1012   1.083       .  S
C1000      C1001   1.408       .  A
C1000      C1003   1.501       .  S
C1001      C1002   1.396       .  A
C1001      H1013   1.079       .  S
C1002      H1014   1.083       .  S
C1003      C1004   1.355       .  D
C1003      H1015   1.084       .  S
C1004      C1005   1.496       .  S
C1004      H1016   1.082       .  S
C1005      C1006   1.408       .  A
C1005      C1010   1.411       .  A
C1006      C1007   1.399       .  A
C1006      H1017   1.083       .  S
C1007      C1008   1.401       .  A
C1007      H1018   1.083       .  S
C1008      C1009   1.403       .  A
C1009      C1010   1.403       .  A
C1009      H1019   1.083       .  S
C1010      H1020   1.080       .  S
C1021      C1022   1.402       .  A
C1021      C1026   1.402       .  A
C1022      C1023   1.399       .  A
C1022      H1035   1.083       .  S
C1023      C1024   1.408       .  A
C1023      H1036   1.083       .  S
C1024      C1025   1.411       .  A
C1024      C1027   1.496       .  S
C1025      C1026   1.402       .  A
C1025      H1037   1.080       .  S
C1026      H1038   1.083       .  S
C1027      C1028   1.353       .  D
C1027      H1039   1.085       .  S
C1028      C1029   1.494       .  S
C1028      H1040   1.083       .  S
C1029      C1030   1.407       .  A
C1029      C1034   1.407       .  A
C1030      C1031   1.404       .  A
C1030      H1041   1.083       .  S
C1031      C1032   1.405       .  A
C1031      H1042   1.083       .  S
C1032      C1033   1.407       .  A
C1033      C1034   1.398       .  A
C1033      H1043   1.082       .  S
C1034      H1044   1.081       .  S
C1045      C1046   1.404       .  A
C1045      C1050   1.404       .  A
C1046      C1047   1.402       .  A
C1046      H1059   1.083       .  S
C1047      C1048   1.404       .  A
C1047      H1060   1.083       .  S
C1048      C1049   1.409       .  A
C1048      C1051   1.491       .  S
C1049      C1050   1.400       .  A
C1049      H1061   1.082       .  S
C1050      H1062   1.081       .  S
C1051      C1052   1.348       .  D
C1051      H1063   1.085       .  S
C1052      C1053   1.493       .  S
C1052      H1064   1.087       .  S
C1053      C1054   1.403       .  A
C1053      C1058   1.412       .  A
C1054      C1055   1.395       .  A
C1054      H1065   1.084       .  S
C1055      C1056   1.404       .  A
C1055      H1066   1.084       .  S
C1056      C1057   1.406       .  A
C1057      C1058   1.408       .  A
C1057      H1067   1.083       .  S
C1058      H1068   1.081       .  S
C1069      C1070   1.405       .  A
C1069      C1074   1.407       .  A
C1070      C1071   1.407       .  A
C1070      H1083   1.083       .  S
C1071      C1072   1.408       .  A
C1071      H1084   1.083       .  S
C1072      C1073   1.406       .  A
C1072      C1075   1.496       .  S
C1073      C1074   1.396       .  A
C1073      H1085   1.082       .  S
C1074      H1086   1.082       .  S
C1075      C1076   1.354       .  D
C1075      H1087   1.083       .  S
C1076      C1077   1.497       .  S
C1076      H1088   1.085       .  S
C1077      C1078   1.407       .  A
C1077      C1082   1.410       .  A
C1078      C1079   1.398       .  A
C1078      H1089   1.083       .  S
C1079      C1080   1.402       .  A
C1079      H1090   1.082       .  S
C1080      C1081   1.406       .  A
C1081      C1082   1.404       .  A
C1081      H1091   1.083       .  S
C1082      H1092   1.080       .  S
C1093      C1094   1.403       .  A
C1093      C1098   1.401       .  A
C1094      C1095   1.396       .  A
C1094      H1107   1.083       .  S
C1095      C1096   1.400       .  A
C1095      H1108   1.083       .  S
C1096      C1097   1.410       .  A
C1096      C1099   1.483       .  S
C1097      C1098   1.399       .  A
C1097      H1109   1.083       .  S
C1098      H1110   1.083       .  S
C1099      C1100   1.344       .  D
C1099      H1111   1.084       .  S
C1100      C1101   1.488       .  S
C1100      H1112   1.087       .  S
C1101      C1102   1.401       .  A
C1101      C1106   1.413       .  A
C1102      C1103   1.390       .  A
C1102      H1113   1.084       .  S
C1103      C1104   1.401       .  A
C1103      H1114   1.081       .  S
C1104      C1105   1.403       .  A
C1105      C1106   1.405       .  A
C1105      H1115   1.083       .  S
C1106      H1116   1.080       .  S
C1117      C1118   1.401       .  A
C1117      C1122   1.401       .  A
C1118      C1119   1.401       .  A
C1118      H1131   1.083       .  S
C1119      C1120   1.405       .  A
C1119      H1132   1.083       .  S
C1120      C1121   1.411       .  A
C1120      C1123   1.493       .  S
C1121      C1122   1.399       .  A
C1121      H1133   1.081       .  S
C1122      H1134   1.083       .  S
C1123      C1124   1.348       .  D
C1123      H1135   1.086       .  S
C1124      C1125   1.486       .  S
C1124      H1136   1.085       .  S
C1125      C1126   1.400       .  A
C1125      C1130   1.410       .  A
C1126      C1127   1.392       .  A
C1126      H1137   1.084       .  S
C1127      C1128   1.406       .  A
C1127      H1138   1.083       .  S
C1128      C1129   1.406       .  A
C1129      C1130   1.408       .  A
C1129      H1139   1.083       .  S
C1130      H1140   1.082       .  S
C1141      C1142   1.405       .  A
C1141      C1146   1.403       .  A
C1142      C1143   1.392       .  A
C1142      H1155   1.084       .  S
C1143      C1144   1.398       .  A
C1143      H1156   1.084       .  S
C1144      C1145   1.408       .  A
C1144      C1147   1.476       .  S
C1145      C1146   1.401       .  A
C1145      H1157   1.083       .  S
C1146      H1158   1.083       .  S
C1147      C1148   1.345       .  D
C1147      H1159   1.084       .  S
C1148      C1149   1.484       .  S
C1148      H1160   1.087       .  S
C1149      C1150   1.403       .  A
C1149      C1154   1.410       .  A
C1150      C1151   1.396       .  A
C1150      H1161   1.083       .  S
C1151      C1152   1.401       .  A
C1151      H1162   1.083       .  S
C1152      C1153   1.402       .  A
C1153      C1154   1.397       .  A
C1153      H1163   1.083       .  S
C1154      H1164   1.081       .  S
C1165      C1166   1.406       .  A
C1165      C1170   1.405       .  A
C1166      C1167   1.404       .  A
C1166      H1179   1.083       .  S
C1167      C1168   1.407       .  A
C1167      H1180   1.083       .  S
C1168      C1169   1.407       .  A
C1168      C1171   1.494       .  S
C1169      C1170   1.396       .  A
C1169      H1181   1.081       .  S
C1170      H1182   1.083       .  S
C1171      C1172   1.353       .  D
C1171      H1183   1.083       .  S
C1172      C1173   1.492       .  S
C1172      H1184   1.084       .  S
C1173      C1174   1.407       .  A
C1173      C1178   1.409       .  A
C1174      C1175   1.398       .  A
C1174      H1185   1.083       .  S
C1175      C1176   1.401       .  A
C1175      H1186   1.083       .  S
C1176      C1177   1.403       .  A
C1177      C1178   1.401       .  A
C1177      H1187   1.083       .  S
C1178      H1188   1.080       .  S
C1189      C1190   1.405       .  A
C1189      C1194   1.400       .  A
C1190      C1191   1.407       .  A
C1190      H1203   1.082       .  S
C1191      C1192   1.407       .  A
C1191      H1204   1.083       .  S
C1192      C1193   1.407       .  A
C1192      C1195   1.490       .  S
C1193      C1194   1.388       .  A
C1193      H1205   1.082       .  S
C1194      H1206   1.084       .  S
C1195      C1196   1.346   1_554  D
C1195      H1207   1.086       .  S
C1196      C1197   1.479       .  S
C1196      H1208   1.086   1_556  S
C1197      C1198   1.400       .  A
C1197      C1202   1.410       .  A
C1198      C1199   1.387       .  A
C1198      H1209   1.084       .  S
C1199      C1200   1.400       .  A
C1199      H1210   1.083       .  S
C1200      C1201   1.405       .  A
C1201      C1202   1.408       .  A
C1201      H1211   1.083       .  S
C1202      H1212   1.082       .  S
C1213      C1214   1.405       .  A
C1213      C1218   1.405       .  A
C1214      C1215   1.400       .  A
C1214      H1227   1.083       .  S
C1215      C1216   1.403       .  A
C1215      H1228   1.083       .  S
C1216      C1217   1.405       .  A
C1216      C1219   1.482       .  S
C1217      C1218   1.399       .  A
C1217      H1229   1.083       .  S
C1218      H1230   1.083       .  S
C1219      C1220   1.347       .  D
C1219      H1231   1.087       .  S
C1220      C1221   1.484       .  S
C1220      H1232   1.087       .  S
C1221      C1222   1.407       .  A
C1221      C1226   1.403       .  A
C1222      C1223   1.405       .  A
C1222      H1233   1.083       .  S
C1223      C1224   1.403       .  A
C1223      H1234   1.083       .  S
C1224      C1225   1.405       .  A
C1225      C1226   1.395       .  A
C1225      H1235   1.084       .  S
C1226      H1236   1.083       .  S
C1237      C1238   1.403       .  A
C1237      C1242   1.405       .  A
C1238      C1239   1.400       .  A
C1238      H1251   1.082       .  S
C1239      C1240   1.407       .  A
C1239      H1252   1.083       .  S
C1240      C1241   1.408       .  A
C1240      C1243   1.492       .  S
C1241      C1242   1.400       .  A
C1241      H1253   1.081       .  S
C1242      H1254   1.083       .  S
C1243      C1244   1.351       .  D
C1243      H1255   1.086       .  S
C1244      C1245   1.490       .  S
C1244      H1256   1.085       .  S
C1245      C1246   1.405       .  A
C1245      C1250   1.405       .  A
C1246      C1247   1.403       .  A
C1246      H1257   1.083       .  S
C1247      C1248   1.406       .  A
C1247      H1258   1.083       .  S
C1248      C1249   1.407       .  A
C1249      C1250   1.397       .  A
C1249      H1259   1.081       .  S
C1250      H1260   1.082       .  S
C1261      C1262   1.403       .  A
C1261      C1266   1.407       .  A
C1262      C1263   1.395       .  A
C1262      H1275   1.081       .  S
C1263      C1264   1.401       .  A
C1263      H1276   1.084       .  S
C1264      C1265   1.410       .  A
C1264      C1267   1.489       .  S
C1265      C1266   1.408       .  A
C1265      H1277   1.082       .  S
C1266      H1278   1.083       .  S
C1267      C1268   1.346       .  D
C1267      H1279   1.087       .  S
C1268      C1269   1.489       .  S
C1268      H1280   1.086       .  S
C1269      C1270   1.403       .  A
C1269      C1274   1.409       .  A
C1270      C1271   1.400       .  A
C1270      H1281   1.083       .  S
C1271      C1272   1.403       .  A
C1271      H1282   1.083       .  S
C1272      C1273   1.403       .  A
C1273      C1274   1.402       .  A
C1273      H1283   1.083       .  S
C1274      H1284   1.083       .  S
C1285      C1286   1.401       .  A
C1285      C1290   1.403       .  A
C1286      C1287   1.399       .  A
C1286      H1299   1.083       .  S
C1287      C1288   1.404       .  A
C1287      H1300   1.083       .  S
C1288      C1289   1.411       .  A
C1288      C1291   1.492       .  S
C1289      C1290   1.402       .  A
C1289      H1301   1.082       .  S
C1290      H1302   1.083       .  S
C1291      C1292   1.349       .  D
C1291      H1303   1.084       .  S
C1292      C1293   1.494       .  S
C1292      H1304   1.085       .  S
C1293      C1294   1.402       .  A
C1293      C1298   1.413       .  A
C1294      C1295   1.396       .  A
C1294      H1305   1.084       .  S
C1295      C1296   1.405       .  A
C1295      H1306   1.083   1_554  S
C1296      C1297   1.404       .  A
C1297      C1298   1.407       .  A
C1297      H1307   1.083       .  S
C1298      H1308   1.081       .  S
C1309      C1310   1.401       .  A
C1309      C1314   1.408       .  A
C1310      C1311   1.391       .  A
C1310      H1323   1.084       .  S
C1311      C1312   1.403       .  A
C1311      H1324   1.084       .  S
C1312      C1313   1.412       .  A
C1312      C1315   1.492   1_655  S
C1313      C1314   1.412       .  A
C1313      H1325   1.081       .  S
C1314      H1326   1.083       .  S
C1315      C1316   1.350       .  D
C1315      H1327   1.087       .  S
C1316      C1317   1.495       .  S
C1316      H1328   1.085       .  S
C1317      C1318   1.408       .  A
C1317      C1322   1.405       .  A
C1318      C1319   1.410       .  A
C1318      H1329   1.083       .  S
C1319      C1320   1.408       .  A
C1319      H1330   1.083       .  S
C1320      C1321   1.403       .  A
C1321      C1322   1.392       .  A
C1321      H1331   1.083       .  S
C1322      H1332   1.083       .  S
C1333      C1334   1.403       .  A
C1333      C1338   1.406       .  A
C1334      C1335   1.407       .  A
C1334      H1347   1.083       .  S
C1335      C1336   1.409       .  A
C1335      H1348   1.083       .  S
C1336      C1337   1.406       .  A
C1336      C1339   1.497       .  S
C1337      C1338   1.397       .  A
C1337      H1349   1.081       .  S
C1338      H1350   1.081       .  S
C1339      C1340   1.355       .  D
C1339      H1351   1.083       .  S
C1340      C1341   1.500       .  S
C1340      H1352   1.085       .  S
C1341      C1342   1.409       .  A
C1341      C1346   1.410       .  A
C1342      C1343   1.401       .  A
C1342      H1353   1.083       .  S
C1343      C1344   1.402       .  A
C1343      H1354   1.082       .  S
C1344      C1345   1.404       .  A
C1345      C1346   1.402       .  A
C1345      H1355   1.083       .  S
C1346      H1356   1.079       .  S
C1357      C1358   1.404       .  A
C1357      C1362   1.405       .  A
C1358      C1359   1.406       .  A
C1358      H1371   1.083       .  S
C1359      C1360   1.409       .  A
C1359      H1372   1.083       .  S
C1360      C1361   1.407       .  A
C1360      C1363   1.495       .  S
C1361      C1362   1.393       .  A
C1361      H1373   1.080       .  S
C1362      H1374   1.083       .  S
C1363      C1364   1.351       .  D
C1363      H1375   1.086       .  S
C1364      C1365   1.485       .  S
C1364      H1376   1.083       .  S
C1365      C1366   1.404       .  A
C1365      C1370   1.407       .  A
C1366      C1367   1.396       .  A
C1366      H1377   1.083       .  S
C1367      C1368   1.401       .  A
C1367      H1378   1.083       .  S
C1368      C1369   1.404       .  A
C1369      C1370   1.403       .  A
C1369      H1379   1.083       .  S
C1370      H1380   1.082       .  S
C1381      C1382   1.402       .  A
C1381      C1386   1.403       .  A
C1382      C1383   1.394       .  A
C1382      H1395   1.083       .  S
C1383      C1384   1.404       .  A
C1383      H1396   1.083       .  S
C1384      C1385   1.409       .  A
C1384      C1387   1.487       .  S
C1385      C1386   1.404       .  A
C1385      H1397   1.081       .  S
C1386      H1398   1.083       .  S
C1387      C1388   1.350       .  D
C1387      H1399   1.085       .  S
C1388      C1389   1.491       .  S
C1388      H1400   1.085       .  S
C1389      C1390   1.406       .  A
C1389      C1394   1.408       .  A
C1390      C1391   1.404       .  A
C1390      H1401   1.083       .  S
C1391      C1392   1.406       .  A
C1391      H1402   1.083       .  S
C1392      C1393   1.404       .  A
C1393      C1394   1.395       .  A
C1393      H1403   1.083       .  S
C1394      H1404   1.082       .  S
C1405      C1406   1.406       .  A
C1405      C1410   1.408       .  A
C1406      C1407   1.405       .  A
C1406      H1419   1.083       .  S
C1407      C1408   1.407       .  A
C1407      H1420   1.083       .  S
C1408      C1409   1.407       .  A
C1408      C1411   1.495       .  S
C1409      C1410   1.403       .  A
C1409      H1421   1.083       .  S
C1410      H1422   1.083       .  S
C1411      C1412   1.349       .  D
C1411      H1423   1.087       .  S
C1412      C1413   1.492       .  S
C1412      H1424   1.086       .  S
C1413      C1414   1.402       .  A
C1413      C1418   1.407       .  A
C1414      C1415   1.400       .  A
C1414      H1425   1.083       .  S
C1415      C1416   1.409       .  A
C1415      H1426   1.083       .  S
C1416      C1417   1.409       .  A
C1417      C1418   1.407       .  A
C1417      H1427   1.079       .  S
C1418      H1428   1.083       .  S
C1429      C1430   1.402       .  A
C1429      C1434   1.407       .  A
C1430      C1431   1.388       .  A
C1430      H1443   1.084       .  S
C1431      C1432   1.401       .  A
C1431      H1444   1.084       .  S
C1432      C1433   1.411       .  A
C1432      C1435   1.486       .  S
C1433      C1434   1.409       .  A
C1433      H1445   1.082       .  S
C1434      H1446   1.083       .  S
C1435      C1436   1.347   1_554  D
C1435      H1447   1.087   1_554  S
C1436      C1437   1.491       .  S
C1436      H1448   1.085       .  S
C1437      C1438   1.407       .  A
C1437      C1442   1.406       .  A
C1438      C1439   1.407       .  A
C1438      H1449   1.083       .  S
C1439      C1440   1.406       .  A
C1439      H1450   1.082       .  S
C1440      C1441   1.403       .  A
C1441      C1442   1.392       .  A
C1441      H1451   1.084       .  S
C1442      H1452   1.083       .  S
C1453      C1454   1.400       .  A
C1453      C1458   1.404       .  A
C1454      C1455   1.389       .  A
C1454      H1467   1.084       .  S
C1455      C1456   1.403       .  A
C1455      H1468   1.084       .  S
C1456      C1457   1.413       .  A
C1456      C1459   1.490       .  S
C1457      C1458   1.410       .  A
C1457      H1469   1.081       .  S
C1458      H1470   1.083       .  S
C1459      C1460   1.349   1_655  D
C1459      H1471   1.087   1_655  S
C1460      C1461   1.493       .  S
C1460      H1472   1.084       .  S
C1461      C1462   1.408       .  A
C1461      C1466   1.407       .  A
C1462      C1463   1.408       .  A
C1462      H1473   1.083       .  S
C1463      C1464   1.406       .  A
C1463      H1474   1.082       .  S
C1464      C1465   1.401       .  A
C1465      C1466   1.391       .  A
C1465      H1475   1.084       .  S
C1466      H1476   1.082       .  S
C1477      C1478   1.407       .  A
C1477      C1482   1.408       .  A
C1478      C1479   1.396       .  A
C1478      H1491   1.083       .  S
C1479      C1480   1.400       .  A
C1479      H1492   1.083       .  S
C1480      C1481   1.408       .  A
C1480      C1483   1.485       .  S
C1481      C1482   1.405       .  A
C1481      H1493   1.083       .  S
C1482      H1494   1.081       .  S
C1483      C1484   1.346       .  D
C1483      H1495   1.086       .  S
C1484      C1485   1.490       .  S
C1484      H1496   1.087       .  S
C1485      C1486   1.406       .  A
C1485      C1490   1.407       .  A
C1486      C1487   1.404       .  A
C1486      H1497   1.083       .  S
C1487      C1488   1.403       .  A
C1487      H1498   1.083       .  S
C1488      C1489   1.402       .  A
C1489      C1490   1.397       .  A
C1489      H1499   1.082       .  S
C1490      H1500   1.082       .  S
C1501      C1502   1.406       .  A
C1501      C1506   1.402       .  A
C1502      C1503   1.408       .  A
C1502      H1515   1.083       .  S
C1503      C1504   1.411       .  A
C1503      H1516   1.081       .  S
C1504      C1505   1.407       .  A
C1504      C1507   1.497       .  S
C1505      C1506   1.397       .  A
C1505      H1517   1.083       .  S
C1506      H1518   1.083       .  S
C1507      C1508   1.355       .  D
C1507      H1519   1.085       .  S
C1508      C1509   1.499       .  S
C1508      H1520   1.084       .  S
C1509      C1510   1.410       .  A
C1509      C1514   1.407       .  A
C1510      C1511   1.410       .  A
C1510      H1521   1.083       .  S
C1511      C1512   1.405       .  A
C1511      H1522   1.083       .  S
C1512      C1513   1.402       .  A
C1513      C1514   1.396       .  A
C1513      H1523   1.079       .  S
C1514      H1524   1.082       .  S
C1525      C1526   1.404       .  A
C1525      C1530   1.405       .  A
C1526      C1527   1.402       .  A
C1526      H1539   1.083       .  S
C1527      C1528   1.405       .  A
C1527      H1540   1.083       .  S
C1528      C1529   1.412       .  A
C1528      C1531   1.501       .  S
C1529      C1530   1.406       .  A
C1529      H1541   1.082       .  S
C1530      H1542   1.083       .  S
C1531      C1532   1.351       .  D
C1531      H1543   1.084       .  S
C1532      C1533   1.502       .  S
C1532      H1544   1.086       .  S
C1533      C1534   1.404       .  A
C1533      C1538   1.414       .  A
C1534      C1535   1.398       .  A
C1534      H1545   1.084       .  S
C1535      C1536   1.405       .  A
C1535      H1546   1.083       .  S
C1536      C1537   1.407       .  A
C1537      C1538   1.412       .  A
C1537      H1547   1.083       .  S
C1538      H1548   1.081       .  S
C1549      C1550   1.404       .  A
C1549      C1554   1.405       .  A
C1550      C1551   1.401       .  A
C1550      H1563   1.083       .  S
C1551      C1552   1.405       .  A
C1551      H1564   1.083       .  S
C1552      C1553   1.406       .  A
C1552      C1555   1.486       .  S
C1553      C1554   1.394       .  A
C1553      H1565   1.082       .  S
C1554      H1566   1.083       .  S
C1555      C1556   1.351       .  D
C1555      H1567   1.083       .  S
C1556      C1557   1.490       .  S
C1556      H1568   1.085       .  S
C1557      C1558   1.407       .  A
C1557      C1562   1.409       .  A
C1558      C1559   1.398       .  A
C1558      H1569   1.083       .  S
C1559      C1560   1.401       .  A
C1559      H1570   1.082       .  S
C1560      C1561   1.402       .  A
C1561      C1562   1.396       .  A
C1561      H1571   1.083       .  S
C1562      H1572   1.079       .  S
C1573      C1574   1.406       .  A
C1573      C1578   1.406       .  A
C1574      C1575   1.397       .  A
C1574      H1587   1.083       .  S
C1575      C1576   1.403       .  A
C1575      H1588   1.084       .  S
C1576      C1577   1.411       .  A
C1576      C1579   1.494       .  S
C1577      C1578   1.406       .  A
C1577      H1589   1.081       .  S
C1578      H1590   1.083       .  S
C1579      C1580   1.349       .  D
C1579      H1591   1.085       .  S
C1580      C1581   1.494       .  S
C1580      H1592   1.085       .  S
C1581      C1582   1.405       .  A
C1581      C1586   1.410       .  A
C1582      C1583   1.400       .  A
C1582      H1593   1.083       .  S
C1583      C1584   1.404       .  A
C1583      H1594   1.083       .  S
C1584      C1585   1.405       .  A
C1585      C1586   1.402       .  A
C1585      H1595   1.083       .  S
C1586      H1596   1.081       .  S
C1597      C1598   1.404       .  A
C1597      C1602   1.400       .  A
C1598      C1599   1.396       .  A
C1598      H1611   1.083       .  S
C1599      C1600   1.405       .  A
C1599      H1612   1.081       .  S
C1600      C1601   1.405       .  A
C1600      C1603   1.480       .  S
C1601      C1602   1.394       .  A
C1601      H1613   1.083       .  S
C1602      H1614   1.083       .  S
C1603      C1604   1.349       .  D
C1603      H1615   1.087       .  S
C1604      C1605   1.479       .  S
C1604      H1616   1.083       .  S
C1605      C1606   1.405       .  A
C1605      C1610   1.401       .  A
C1606      C1607   1.405       .  A
C1606      H1617   1.083       .  S
C1607      C1608   1.407       .  A
C1607      H1618   1.083       .  S
C1608      C1609   1.405       .  A
C1609      C1610   1.385       .  A
C1609      H1619   1.083       .  S
C1610      H1620   1.083       .  S
C1621      C1622   1.400       .  A
C1621      C1626   1.402       .  A
C1622      C1623   1.396       .  A
C1622      H1635   1.083       .  S
C1623      C1624   1.407       .  A
C1623      H1636   1.083       .  S
C1624      C1625   1.408       .  A
C1624      C1627   1.486       .  S
C1625      C1626   1.396       .  A
C1625      H1637   1.079       .  S
C1626      H1638   1.083       .  S
C1627      C1628   1.350       .  D
C1627      H1639   1.085       .  S
C1628      C1629   1.485       .  S
C1628      H1640   1.083       .  S
C1629      C1630   1.408       .  A
C1629      C1634   1.405       .  A
C1630      C1631   1.404       .  A
C1630      H1641   1.083       .  S
C1631      C1632   1.402       .  A
C1631      H1642   1.083       .  S
C1632      C1633   1.404       .  A
C1633      C1634   1.388       .  A
C1633      H1643   1.084       .  S
C1634      H1644   1.081       .  S
C1645      C1646   1.402       .  A
C1645      C1650   1.403       .  A
C1646      C1647   1.406       .  A
C1646      H1659   1.082       .  S
C1647      C1648   1.409       .  A
C1647      H1660   1.083       .  S
C1648      C1649   1.409       .  A
C1648      C1651   1.498       .  S
C1649      C1650   1.400       .  A
C1649      H1661   1.081       .  S
C1650      H1662   1.084       .  S
C1651      C1652   1.352       .  D
C1651      H1663   1.086       .  S
C1652      C1653   1.494       .  S
C1652      H1664   1.085       .  S
C1653      C1654   1.405       .  A
C1653      C1658   1.410       .  A
C1654      C1655   1.401       .  A
C1654      H1665   1.083       .  S
C1655      C1656   1.403       .  A
C1655      H1666   1.083       .  S
C1656      C1657   1.404       .  A
C1657      C1658   1.404       .  A
C1657      H1667   1.083       .  S
C1658      H1668   1.082       .  S
C1669      C1670   1.407       .  A
C1669      C1674   1.402       .  A
C1670      C1671   1.409       .  A
C1670      H1683   1.083       .  S
C1671      C1672   1.408       .  A
C1671      H1684   1.083       .  S
C1672      C1673   1.407       .  A
C1672      C1675   1.495       .  S
C1673      C1674   1.392       .  A
C1673      H1685   1.083       .  S
C1674      H1686   1.084       .  S
C1675      C1676   1.350   1_554  D
C1675      H1687   1.084       .  S
C1676      C1677   1.493       .  S
C1676      H1688   1.087   1_556  S
C1677      C1678   1.403       .  A
C1677      C1682   1.413       .  A
C1678      C1679   1.389       .  A
C1678      H1689   1.084       .  S
C1679      C1680   1.400       .  A
C1679      H1690   1.084       .  S
C1680      C1681   1.407       .  A
C1681      C1682   1.413       .  A
C1681      H1691   1.083       .  S
C1682      H1692   1.081       .  S
C1693      C1694   1.405       .  A
C1693      C1698   1.410       .  A
C1694      C1695   1.402       .  A
C1694      H1707   1.083       .  S
C1695      C1696   1.405       .  A
C1695      H1708   1.083       .  S
C1696      C1697   1.411       .  A
C1696      C1699   1.502       .  S
C1697      C1698   1.410       .  A
C1697      H1709   1.082       .  S
C1698      H1710   1.082       .  S
C1699      C1700   1.353       .  D
C1699      H1711   1.085       .  S
C1700      C1701   1.506       .  S
C1700      H1712   1.086       .  S
C1701      C1702   1.406       .  A
C1701      C1706   1.411       .  A
C1702      C1703   1.404       .  A
C1702      H1713   1.083       .  S
C1703      C1704   1.408       .  A
C1703      H1714   1.082       .  S
C1704      C1705   1.410       .  A
C1705      C1706   1.409       .  A
C1705      H1715   1.083       .  S
C1706      H1716   1.081       .  S
C1717      C1718   1.404       .  A
C1717      C1722   1.403       .  A
C1718      C1719   1.399       .  A
C1718      H1731   1.083       .  S
C1719      C1720   1.402       .  A
C1719      H1732   1.083       .  S
C1720      C1721   1.408       .  A
C1720      C1723   1.485       .  S
C1721      C1722   1.402       .  A
C1721      H1733   1.083       .  S
C1722      H1734   1.083       .  S
C1723      C1724   1.345       .  D
C1723      H1735   1.086       .  S
C1724      C1725   1.488       .  S
C1724      H1736   1.088       .  S
C1725      C1726   1.402       .  A
C1725      C1730   1.409       .  A
C1726      C1727   1.396       .  A
C1726      H1737   1.084       .  S
C1727      C1728   1.406       .  A
C1727      H1738   1.083       .  S
C1728      C1729   1.406       .  A
C1729      C1730   1.406       .  A
C1729      H1739   1.083       .  S
C1730      H1740   1.082       .  S
C1741      C1742   1.404       .  A
C1741      C1746   1.406       .  A
C1742      C1743   1.403       .  A
C1742      H1755   1.083       .  S
C1743      C1744   1.407       .  A
C1743      H1756   1.083       .  S
C1744      C1745   1.406       .  A
C1744      C1747   1.489       .  S
C1745      C1746   1.395       .  A
C1745      H1757   1.082       .  S
C1746      H1758   1.083       .  S
C1747      C1748   1.352       .  D
C1747      H1759   1.082       .  S
C1748      C1749   1.493       .  S
C1748      H1760   1.085       .  S
C1749      C1750   1.408       .  A
C1749      C1754   1.409       .  A
C1750      C1751   1.400       .  A
C1750      H1761   1.083       .  S
C1751      C1752   1.401       .  A
C1751      H1762   1.082       .  S
C1752      C1753   1.403       .  A
C1753      C1754   1.397       .  A
C1753      H1763   1.083       .  S
C1754      H1764   1.079       .  S
C1765      C1766   1.403       .  A
C1765      C1770   1.409       .  A
C1766      C1767   1.406       .  A
C1766      H1779   1.083       .  S
C1767      C1768   1.409       .  A
C1767      H1780   1.083       .  S
C1768      C1769   1.414       .  A
C1768      C1771   1.513       .  S
C1769      C1770   1.411       .  A
C1769      H1781   1.081       .  S
C1770      H1782   1.083       .  S
C1771      C1772   1.356       .  D
C1771      H1783   1.085       .  S
C1772      C1773   1.509       .  S
C1772      H1784   1.084       .  S
C1773      C1774   1.404       .  A
C1773      C1778   1.416       .  A
C1774      C1775   1.400       .  A
C1774      H1785   1.083       .  S
C1775      C1776   1.406       .  A
C1775      H1786   1.080       .  S
C1776      C1777   1.408       .  A
C1777      C1778   1.417       .  A
C1777      H1787   1.083       .  S
C1778      H1788   1.081       .  S
C1789      C1790   1.407       .  A
C1789      C1794   1.405       .  A
C1790      C1791   1.409       .  A
C1790      H1803   1.082       .  S
C1791      C1792   1.408       .  A
C1791      H1804   1.083       .  S
C1792      C1793   1.405       .  A
C1792      C1795   1.494       .  S
C1793      C1794   1.392       .  A
C1793      H1805   1.083       .  S
C1794      H1806   1.084       .  S
C1795      C1796   1.349   1_565  D
C1795      H1807   1.085       .  S
C1796      C1797   1.489       .  S
C1796      H1808   1.087   1_545  S
C1797      C1798   1.402       .  A
C1797      C1802   1.412       .  A
C1798      C1799   1.389       .  A
C1798      H1809   1.084       .  S
C1799      C1800   1.401       .  A
C1799      H1810   1.084       .  S
C1800      C1801   1.407       .  A
C1801      C1802   1.411       .  A
C1801      H1811   1.083       .  S
C1802      H1812   1.082       .  S
C1813      C1814   1.405       .  A
C1813      C1818   1.405       .  A
C1814      C1815   1.393       .  A
C1814      H1827   1.083       .  S
C1815      C1816   1.400       .  A
C1815      H1828   1.084       .  S
C1816      C1817   1.407       .  A
C1816      C1819   1.479       .  S
C1817      C1818   1.401       .  A
C1817      H1829   1.082       .  S
C1818      H1830   1.083       .  S
C1819      C1820   1.343       .  D
C1819      H1831   1.087       .  S
C1820      C1821   1.479       .  S
C1820      H1832   1.086       .  S
C1821      C1822   1.402       .  A
C1821      C1826   1.407       .  A
C1822      C1823   1.397       .  A
C1822      H1833   1.083       .  S
C1823      C1824   1.401       .  A
C1823      H1834   1.083       .  S
C1824      C1825   1.401       .  A
C1825      C1826   1.397       .  A
C1825      H1835   1.082       .  S
C1826      H1836   1.083       .  S
C1837      C1838   1.402       .  A
C1837      C1842   1.401       .  A
C1838      C1839   1.403       .  A
C1838      H1851   1.083       .  S
C1839      C1840   1.411       .  A
C1839      H1852   1.079       .  S
C1840      C1841   1.409       .  A
C1840      C1843   1.498       .  S
C1841      C1842   1.400       .  A
C1841      H1853   1.083       .  S
C1842      H1854   1.083       .  S
C1843      C1844   1.355       .  D
C1843      H1855   1.085       .  S
C1844      C1845   1.496       .  S
C1844      H1856   1.083       .  S
C1845      C1846   1.409       .  A
C1845      C1850   1.407       .  A
C1846      C1847   1.407       .  A
C1846      H1857   1.083       .  S
C1847      C1848   1.404       .  A
C1847      H1858   1.083       .  S
C1848      C1849   1.405       .  A
C1849      C1850   1.396       .  A
C1849      H1859   1.083       .  S
C1850      H1860   1.081       .  S
C1861      C1862   1.403       .  A
C1861      C1866   1.405       .  A
C1862      C1863   1.403       .  A
C1862      H1875   1.083       .  S
C1863      C1864   1.407       .  A
C1863      H1876   1.083       .  S
C1864      C1865   1.413       .  A
C1864      C1867   1.503       .  S
C1865      C1866   1.405       .  A
C1865      H1877   1.080       .  S
C1866      H1878   1.083       .  S
C1867      C1868   1.353       .  D
C1867      H1879   1.085       .  S
C1868      C1869   1.501       .  S
C1868      H1880   1.084       .  S
C1869      C1870   1.404       .  A
C1869      C1874   1.413       .  A
C1870      C1871   1.398       .  A
C1870      H1881   1.084       .  S
C1871      C1872   1.405       .  A
C1871      H1882   1.083   1_545  S
C1872      C1873   1.406       .  A
C1873      C1874   1.411       .  A
C1873      H1883   1.083       .  S
C1874      H1884   1.081       .  S
C1885      C1886   1.405       .  A
C1885      C1890   1.408       .  A
C1886      C1887   1.406       .  A
C1886      H1899   1.083       .  S
C1887      C1888   1.407       .  A
C1887      H1900   1.083       .  S
C1888      C1889   1.404       .  A
C1888      C1891   1.488       .  S
C1889      C1890   1.390       .  A
C1889      H1901   1.082       .  S
C1890      H1902   1.083       .  S
C1891      C1892   1.351       .  D
C1891      H1903   1.084       .  S
C1892      C1893   1.486       .  S
C1892      H1904   1.085       .  S
C1893      C1894   1.406       .  A
C1893      C1898   1.407       .  A
C1894      C1895   1.397       .  A
C1894      H1905   1.083       .  S
C1895      C1896   1.401       .  A
C1895      H1906   1.082       .  S
C1896      C1897   1.404       .  A
C1897      C1898   1.398       .  A
C1897      H1907   1.083       .  S
C1898      H1908   1.081       .  S
C1909      C1910   1.401       .  A
C1909      C1914   1.407       .  A
C1910      C1911   1.388       .  A
C1910      H1923   1.084       .  S
C1911      C1912   1.402       .  A
C1911      H1924   1.084       .  S
C1912      C1913   1.413       .  A
C1912      C1915   1.491       .  S
C1913      C1914   1.412       .  A
C1913      H1925   1.081       .  S
C1914      H1926   1.083       .  S
C1915      C1916   1.349   1_545  D
C1915      H1927   1.088   1_545  S
C1916      C1917   1.492       .  S
C1916      H1928   1.084       .  S
C1917      C1918   1.408       .  A
C1917      C1922   1.406       .  A
C1918      C1919   1.409       .  A
C1918      H1929   1.083       .  S
C1919      C1920   1.406       .  A
C1919      H1930   1.083       .  S
C1920      C1921   1.401       .  A
C1921      C1922   1.391       .  A
C1921      H1931   1.084       .  S
C1922      H1932   1.083       .  S
C1933      C1934   1.403       .  A
C1933      C1938   1.407       .  A
C1934      C1935   1.391       .  A
C1934      H1947   1.083       .  S
C1935      C1936   1.402       .  A
C1935      H1948   1.084       .  S
C1936      C1937   1.410       .  A
C1936      C1939   1.487       .  S
C1937      C1938   1.407       .  A
C1937      H1949   1.081       .  S
C1938      H1950   1.082       .  S
C1939      C1940   1.348   1_554  D
C1939      H1951   1.088   1_554  S
C1940      C1941   1.488       .  S
C1940      H1952   1.085       .  S
C1941      C1942   1.407       .  A
C1941      C1946   1.405       .  A
C1942      C1943   1.407       .  A
C1942      H1953   1.083       .  S
C1943      C1944   1.405       .  A
C1943      H1954   1.083       .  S
C1944      C1945   1.402       .  A
C1945      C1946   1.390       .  A
C1945      H1955   1.084       .  S
C1946      H1956   1.083       .  S
C1957      C1958   1.405       .  A
C1957      C1962   1.407       .  A
C1958      C1959   1.406       .  A
C1958      H1971   1.083       .  S
C1959      C1960   1.408       .  A
C1959      H1972   1.083       .  S
C1960      C1961   1.406       .  A
C1960      C1963   1.494       .  S
C1961      C1962   1.396       .  A
C1961      H1973   1.082       .  S
C1962      H1974   1.083       .  S
C1963      C1964   1.353       .  D
C1963      H1975   1.083       .  S
C1964      C1965   1.496       .  S
C1964      H1976   1.085       .  S
C1965      C1966   1.408       .  A
C1965      C1970   1.410       .  A
C1966      C1967   1.398       .  A
C1966      H1977   1.083       .  S
C1967      C1968   1.401       .  A
C1967      H1978   1.083       .  S
C1968      C1969   1.404       .  A
C1969      C1970   1.402       .  A
C1969      H1979   1.083       .  S
C1970      H1980   1.080       .  S
C1981      C1982   1.402       .  A
C1981      C1986   1.406       .  A
C1982      C1983   1.398       .  A
C1982      H1995   1.083       .  S
C1983      C1984   1.405       .  A
C1983      H1996   1.083       .  S
C1984      C1985   1.408       .  A
C1984      C1987   1.490       .  S
C1985      C1986   1.406       .  A
C1985      H1997   1.082       .  S
C1986      H1998   1.083       .  S
C1987      C1988   1.350       .  D
C1987      H1999   1.087       .  S
C1988      C1989   1.493       .  S
C1988      H2000   1.086       .  S
C1989      C1990   1.405       .  A
C1989      C1994   1.406       .  A
C1990      C1991   1.406       .  A
C1990      H2001   1.083       .  S
C1991      C1992   1.409       .  A
C1991      H2002   1.083       .  S
C1992      C1993   1.407       .  A
C1993      C1994   1.399       .  A
C1993      H2003   1.083       .  S
C1994      H2004   1.083       .  S
C2005      C2006   1.402       .  A
C2005      C2010   1.406       .  A
C2006      C2007   1.398       .  A
C2006      H2019   1.081       .  S
C2007      C2008   1.407       .  A
C2007      H2020   1.083       .  S
C2008      C2009   1.410       .  A
C2008      C2011   1.496       .  S
C2009      C2010   1.405       .  A
C2009      H2021   1.080       .  S
C2010      H2022   1.083       .  S
C2011      C2012   1.353       .  D
C2011      H2023   1.086       .  S
C2012      C2013   1.495       .  S
C2012      H2024   1.084       .  S
C2013      C2014   1.408       .  A
C2013      C2018   1.406       .  A
C2014      C2015   1.408       .  A
C2014      H2025   1.083       .  S
C2015      C2016   1.405       .  A
C2015      H2026   1.083       .  S
C2016      C2017   1.406       .  A
C2017      C2018   1.395       .  A
C2017      H2027   1.084       .  S
C2018      H2028   1.082       .  S
C2029      C2030   1.402       .  A
C2029      C2034   1.401       .  A
C2030      C2031   1.403       .  A
C2030      H2043   1.083       .  S
C2031      C2032   1.411       .  A
C2031      H2044   1.079       .  S
C2032      C2033   1.407       .  A
C2032      C2035   1.495       .  S
C2033      C2034   1.398       .  A
C2033      H2045   1.083       .  S
C2034      H2046   1.082       .  S
C2035      C2036   1.352       .  D
C2035      H2047   1.086       .  S
C2036      C2037   1.493       .  S
C2036      H2048   1.083       .  S
C2037      C2038   1.406       .  A
C2037      C2042   1.406       .  A
C2038      C2039   1.405       .  A
C2038      H2049   1.083       .  S
C2039      C2040   1.406       .  A
C2039      H2050   1.083       .  S
C2040      C2041   1.407       .  A
C2041      C2042   1.397       .  A
C2041      H2051   1.082       .  S
C2042      H2052   1.082       .  S
C2053      C2054   1.406       .  A
C2053      C2058   1.404       .  A
C2054      C2055   1.393       .  A
C2054      H2067   1.083       .  S
C2055      C2056   1.398       .  A
C2055      H2068   1.083       .  S
C2056      C2057   1.408       .  A
C2056      C2059   1.478       .  S
C2057      C2058   1.402       .  A
C2057      H2069   1.083       .  S
C2058      H2070   1.082       .  S
C2059      C2060   1.340       .  D
C2059      H2071   1.087       .  S
C2060      C2061   1.481       .  S
C2060      H2072   1.087       .  S
C2061      C2062   1.401       .  A
C2061      C2066   1.409       .  A
C2062      C2063   1.395       .  A
C2062      H2073   1.083       .  S
C2063      C2064   1.402       .  A
C2063      H2074   1.083       .  S
C2064      C2065   1.400       .  A
C2065      C2066   1.401       .  A
C2065      H2075   1.081       .  S
C2066      H2076   1.083       .  S
C2077      C2078   1.402       .  A
C2077      C2082   1.405       .  A
C2078      C2079   1.401       .  A
C2078      H2091   1.083       .  S
C2079      C2080   1.407       .  A
C2079      H2092   1.083       .  S
C2080      C2081   1.409       .  A
C2080      C2083   1.496       .  S
C2081      C2082   1.406       .  A
C2081      H2093   1.081       .  S
C2082      H2094   1.083       .  S
C2083      C2084   1.353       .  D
C2083      H2095   1.086       .  S
C2084      C2085   1.497       .  S
C2084      H2096   1.085       .  S
C2085      C2086   1.406       .  A
C2085      C2090   1.406       .  A
C2086      C2087   1.406       .  A
C2086      H2097   1.083       .  S
C2087      C2088   1.408       .  A
C2087      H2098   1.083       .  S
C2088      C2089   1.409       .  A
C2089      C2090   1.400       .  A
C2089      H2099   1.083       .  S
C2090      H2100   1.082       .  S
C2101      C2102   1.401       .  A
C2101      C2106   1.404       .  A
C2102      C2103   1.399       .  A
C2102      H2115   1.083       .  S
C2103      C2104   1.406       .  A
C2103      H2116   1.083       .  S
C2104      C2105   1.409       .  A
C2104      C2107   1.493       .  S
C2105      C2106   1.404       .  A
C2105      H2117   1.081       .  S
C2106      H2118   1.083       .  S
C2107      C2108   1.353       .  D
C2107      H2119   1.085       .  S
C2108      C2109   1.496       .  S
C2108      H2120   1.085       .  S
C2109      C2110   1.408       .  A
C2109      C2114   1.408       .  A
C2110      C2111   1.406       .  A
C2110      H2121   1.083       .  S
C2111      C2112   1.405       .  A
C2111      H2122   1.083       .  S
C2112      C2113   1.405       .  A
C2113      C2114   1.397       .  A
C2113      H2123   1.084       .  S
C2114      H2124   1.082       .  S
C2125      C2126   1.402       .  A
C2125      C2130   1.403       .  A
C2126      C2127   1.394       .  A
C2126      H2139   1.084       .  S
C2127      C2128   1.400       .  A
C2127      H2140   1.084       .  S
C2128      C2129   1.410       .  A
C2128      C2131   1.484       .  S
C2129      C2130   1.406       .  A
C2129      H2141   1.083       .  S
C2130      H2142   1.083       .  S
C2131      C2132   1.342       .  D
C2131      H2143   1.087       .  S
C2132      C2133   1.485       .  S
C2132      H2144   1.086       .  S
C2133      C2134   1.400       .  A
C2133      C2138   1.409       .  A
C2134      C2135   1.396       .  A
C2134      H2145   1.083       .  S
C2135      C2136   1.406       .  A
C2135      H2146   1.084       .  S
C2136      C2137   1.404       .  A
C2137      C2138   1.403       .  A
C2137      H2147   1.081       .  S
C2138      H2148   1.083       .  S
C2149      C2150   1.404       .  A
C2149      C2154   1.408       .  A
C2150      C2151   1.388       .  A
C2150      H2163   1.084       .  S
C2151      C2152   1.400       .  A
C2151      H2164   1.084       .  S
C2152      C2153   1.410       .  A
C2152      C2155   1.485       .  S
C2153      C2154   1.410       .  A
C2153      H2165   1.082       .  S
C2154      H2166   1.082       .  S
C2155      C2156   1.347   1_545  D
C2155      H2167   1.087   1_545  S
C2156      C2157   1.492       .  S
C2156      H2168   1.085       .  S
C2157      C2158   1.408       .  A
C2157      C2162   1.406       .  A
C2158      C2159   1.409       .  A
C2158      H2169   1.083       .  S
C2159      C2160   1.405       .  A
C2159      H2170   1.083       .  S
C2160      C2161   1.402       .  A
C2161      C2162   1.389       .  A
C2161      H2171   1.084       .  S
C2162      H2172   1.082       .  S
C2173      C2174   1.404       .  A
C2173      C2178   1.401       .  A
C2174      C2175   1.400       .  A
C2174      H2187   1.083       .  S
C2175      C2176   1.408       .  A
C2175      H2188   1.081       .  S
C2176      C2177   1.406       .  A
C2176      C2179   1.487       .  S
C2177      C2178   1.396       .  A
C2177      H2189   1.083       .  S
C2178      H2190   1.083       .  S
C2179      C2180   1.352       .  D
C2179      H2191   1.085       .  S
C2180      C2181   1.490       .  S
C2180      H2192   1.084       .  S
C2181      C2182   1.409       .  A
C2181      C2186   1.405       .  A
C2182      C2183   1.406       .  A
C2182      H2193   1.083       .  S
C2183      C2184   1.403       .  A
C2183      H2194   1.083       .  S
C2184      C2185   1.403       .  A
C2185      C2186   1.390       .  A
C2185      H2195   1.084       .  S
C2186      H2196   1.081       .  S
C2197      C2198   1.404       .  A
C2197      C2202   1.402       .  A
C2198      C2199   1.401       .  A
C2198      H2211   1.083       .  S
C2199      C2200   1.405       .  A
C2199      H2212   1.083       .  S
C2200      C2201   1.411       .  A
C2200      C2203   1.494       .  S
C2201      C2202   1.399       .  A
C2201      H2213   1.081       .  S
C2202      H2214   1.083       .  S
C2203      C2204   1.347       .  D
C2203      H2215   1.086       .  S
C2204      C2205   1.485       .  S
C2204      H2216   1.084       .  S
C2205      C2206   1.400       .  A
C2205      C2210   1.410       .  A
C2206      C2207   1.392       .  A
C2206      H2217   1.084       .  S
C2207      C2208   1.404       .  A
C2207      H2218   1.084       .  S
C2208      C2209   1.406       .  A
C2209      C2210   1.408       .  A
C2209      H2219   1.083       .  S
C2210      H2220   1.082       .  S
C2221      C2222   1.402       .  A
C2221      C2226   1.404       .  A
C2222      C2223   1.398       .  A
C2222      H2235   1.082       .  S
C2223      C2224   1.406       .  A
C2223      H2236   1.083       .  S
C2224      C2225   1.406       .  A
C2224      C2227   1.485       .  S
C2225      C2226   1.397       .  A
C2225      H2237   1.081       .  S
C2226      H2238   1.083       .  S
C2227      C2228   1.351       .  D
C2227      H2239   1.086       .  S
C2228      C2229   1.487       .  S
C2228      H2240   1.085       .  S
C2229      C2230   1.409       .  A
C2229      C2234   1.405       .  A
C2230      C2231   1.405       .  A
C2230      H2241   1.083       .  S
C2231      C2232   1.401       .  A
C2231      H2242   1.083       .  S
C2232      C2233   1.402       .  A
C2233      C2234   1.390       .  A
C2233      H2243   1.084       .  S
C2234      H2244   1.082       .  S
C2245      C2246   1.402       .  A
C2245      C2250   1.402       .  A
C2246      C2247   1.399       .  A
C2246      H2259   1.083       .  S
C2247      C2248   1.407       .  A
C2247      H2260   1.083       .  S
C2248      C2249   1.411       .  A
C2248      C2251   1.496       .  S
C2249      C2250   1.402       .  A
C2249      H2261   1.080       .  S
C2250      H2262   1.083       .  S
C2251      C2252   1.353       .  D
C2251      H2263   1.085       .  S
C2252      C2253   1.495       .  S
C2252      H2264   1.083       .  S
C2253      C2254   1.407       .  A
C2253      C2258   1.408       .  A
C2254      C2255   1.404       .  A
C2254      H2265   1.083       .  S
C2255      C2256   1.405       .  A
C2255      H2266   1.083       .  S
C2256      C2257   1.406       .  A
C2257      C2258   1.399       .  A
C2257      H2267   1.083       .  S
C2258      H2268   1.081       .  S
C2269      C2270   1.402       .  A
C2269      C2274   1.407       .  A
C2270      C2271   1.388       .  A
C2270      H2283   1.084       .  S
C2271      C2272   1.402       .  A
C2271      H2284   1.084       .  S
C2272      C2273   1.413       .  A
C2272      C2275   1.492       .  S
C2273      C2274   1.412       .  A
C2273      H2285   1.081       .  S
C2274      H2286   1.083       .  S
C2275      C2276   1.348   1_455  D
C2275      H2287   1.088       .  S
C2276      C2277   1.490       .  S
C2276      H2288   1.084       .  S
C2277      C2278   1.405       .  A
C2277      C2282   1.406       .  A
C2278      C2279   1.407       .  A
C2278      H2289   1.083       .  S
C2279      C2280   1.407       .  A
C2279      H2290   1.082       .  S
C2280      C2281   1.402       .  A
C2281      C2282   1.395       .  A
C2281      H2291   1.084       .  S
C2282      H2292   1.083       .  S
C2293      C2294   1.403       .  A
C2293      C2298   1.406       .  A
C2294      C2295   1.401       .  A
C2294      H2307   1.083       .  S
C2295      C2296   1.407       .  A
C2295      H2308   1.083       .  S
C2296      C2297   1.407       .  A
C2296      C2299   1.493       .  S
C2297      C2298   1.403       .  A
C2297      H2309   1.082       .  S
C2298      H2310   1.083       .  S
C2299      C2300   1.352       .  D
C2299      H2311   1.086       .  S
C2300      C2301   1.493       .  S
C2300      H2312   1.085       .  S
C2301      C2302   1.407       .  A
C2301      C2306   1.405       .  A
C2302      C2303   1.406       .  A
C2302      H2313   1.083       .  S
C2303      C2304   1.407       .  A
C2303      H2314   1.083       .  S
C2304      C2305   1.408       .  A
C2305      C2306   1.397       .  A
C2305      H2315   1.083       .  S
C2306      H2316   1.083       .  S
C2317      C2318   1.403       .  A
C2317      C2322   1.403       .  A
C2318      C2319   1.400       .  A
C2318      H2331   1.083       .  S
C2319      C2320   1.404       .  A
C2319      H2332   1.083       .  S
C2320      C2321   1.409       .  A
C2320      C2323   1.490       .  S
C2321      C2322   1.400       .  A
C2321      H2333   1.082       .  S
C2322      H2334   1.083       .  S
C2323      C2324   1.350       .  D
C2323      H2335   1.083       .  S
C2324      C2325   1.495       .  S
C2324      H2336   1.086       .  S
C2325      C2326   1.406       .  A
C2325      C2330   1.411       .  A
C2326      C2327   1.398       .  A
C2326      H2337   1.083       .  S
C2327      C2328   1.400       .  A
C2327      H2338   1.080   1_565  S
C2328      C2329   1.403       .  A
C2329      C2330   1.403       .  A
C2329      H2339   1.084       .  S
C2330      H2340   1.080       .  S
C2341      C2342   1.400       .  A
C2341      C2346   1.405       .  A
C2342      C2343   1.397       .  A
C2342      H2355   1.083       .  S
C2343      C2344   1.406       .  A
C2343      H2356   1.083       .  S
C2344      C2345   1.409       .  A
C2344      C2347   1.490       .  S
C2345      C2346   1.405       .  A
C2345      H2357   1.082       .  S
C2346      H2358   1.083       .  S
C2347      C2348   1.353       .  D
C2347      H2359   1.084       .  S
C2348      C2349   1.499       .  S
C2348      H2360   1.085       .  S
C2349      C2350   1.409       .  A
C2349      C2354   1.408       .  A
C2350      C2351   1.408       .  A
C2350      H2361   1.083       .  S
C2351      C2352   1.405       .  A
C2351      H2362   1.083       .  S
C2352      C2353   1.405       .  A
C2353      C2354   1.395       .  A
C2353      H2363   1.083       .  S
C2354      H2364   1.080       .  S
C2365      C2366   1.402       .  A
C2365      C2370   1.405       .  A
C2366      C2367   1.401       .  A
C2366      H2379   1.081       .  S
C2367      C2368   1.408       .  A
C2367      H2380   1.083       .  S
C2368      C2369   1.409       .  A
C2368      C2371   1.497       .  S
C2369      C2370   1.402       .  A
C2369      H2381   1.080       .  S
C2370      H2382   1.083       .  S
C2371      C2372   1.354       .  D
C2371      H2383   1.084       .  S
C2372      C2373   1.498       .  S
C2372      H2384   1.084       .  S
C2373      C2374   1.409       .  A
C2373      C2378   1.408       .  A
C2374      C2375   1.406       .  A
C2374      H2385   1.083       .  S
C2375      C2376   1.404       .  A
C2375      H2386   1.083       .  S
C2376      C2377   1.407       .  A
C2377      C2378   1.398       .  A
C2377      H2387   1.084       .  S
C2378      H2388   1.081       .  S
C2389      C2390   1.407       .  A
C2389      C2394   1.402       .  A
C2390      C2391   1.409       .  A
C2390      H2403   1.083       .  S
C2391      C2392   1.409       .  A
C2391      H2404   1.083       .  S
C2392      C2393   1.406       .  A
C2392      C2395   1.496       .  S
C2393      C2394   1.389       .  A
C2393      H2405   1.082       .  S
C2394      H2406   1.083       .  S
C2395      C2396   1.351   1_545  D
C2395      H2407   1.084       .  S
C2396      C2397   1.491       .  S
C2396      H2408   1.086   1_565  S
C2397      C2398   1.403       .  A
C2397      C2402   1.413       .  A
C2398      C2399   1.389       .  A
C2398      H2409   1.084       .  S
C2399      C2400   1.399       .  A
C2399      H2410   1.084       .  S
C2400      C2401   1.406       .  A
C2401      C2402   1.412       .  A
C2401      H2411   1.083       .  S
C2402      H2412   1.081       .  S
C2413      C2414   1.406       .  A
C2413      C2418   1.404       .  A
C2414      C2415   1.407       .  A
C2414      H2427   1.082       .  S
C2415      C2416   1.409       .  A
C2415      H2428   1.083       .  S
C2416      C2417   1.408       .  A
C2416      C2419   1.498       .  S
C2417      C2418   1.394       .  A
C2417      H2429   1.081       .  S
C2418      H2430   1.083       .  S
C2419      C2420   1.351   1_455  D
C2419      H2431   1.085       .  S
C2420      C2421   1.493       .  S
C2420      H2432   1.084       .  S
C2421      C2422   1.403       .  A
C2421      C2426   1.413       .  A
C2422      C2423   1.391       .  A
C2422      H2433   1.083       .  S
C2423      C2424   1.400       .  A
C2423      H2434   1.084       .  S
C2424      C2425   1.405       .  A
C2425      C2426   1.410       .  A
C2425      H2435   1.083       .  S
C2426      H2436   1.081       .  S
