geometry optimzed in LAMMPS
_audit_creation_date              2020-12-01 
_audit_creation_method            'lammps2cif' 
_symmetry_space_group_name_H-M    'P1' 
_symmetry_Int_Tables_number       1 
_symmetry_cell_setting            triclinic 
loop_ 
_symmetry_equiv_pos_as_xyz 
  x,y,z 
_cell_length_a                    42.69811425 
_cell_length_b                    42.59452038228152 
_cell_length_c                    42.36796116830951 
_cell_angle_alpha                 90.02226553069202 
_cell_angle_beta                  90.18658018760931 
_cell_angle_gamma                 90.12299541504468 
loop_ 
_atom_site_label 
_atom_site_type_symbol 
_atom_site_fract_x 
_atom_site_fract_y 
_atom_site_fract_z 
_atom_site_charge 
N1          N  0.79703506  0.28265285  0.45333470    -0.27400
N2          N  0.81047361  0.30414450  0.43533533    -0.35200
C3          C  0.80259480  0.29842777  0.40501486     0.01000
C4          C  0.78355986  0.27201303  0.40416829     0.07000
C5          C  0.78048488  0.26277704  0.43517509    -0.06100
H6          H  0.80920432  0.31303951  0.38521083     0.07700
H7          H  0.76579389  0.24401782  0.44408218     0.08900
Cu8        Cu  0.83693479  0.34123609  0.45395313     0.44200
Cu9        Cu  0.79676177  0.28380420  0.50193810     0.42000
Cu10       Cu  0.82776777  0.35248797  0.53917511     0.43900
N11         N  0.86249688  0.37391049  0.48055837    -0.34800
N12         N  0.85931452  0.37757833  0.51142140    -0.29000
C13         C  0.88001015  0.39927681  0.52155830    -0.05100
C14         C  0.89697434  0.40996880  0.49593702     0.07100
C15         C  0.88517316  0.39346335  0.47030202     0.00900
H16         H  0.88250325  0.40673139  0.54584617     0.08600
H17         H  0.89275928  0.39526623  0.44602420     0.07600
N18         N  0.79878459  0.32054740  0.56223885    -0.36200
N19         N  0.78907538  0.29432113  0.54872705    -0.28400
C20         C  0.77286901  0.27722453  0.56973252    -0.03600
C21         C  0.77198048  0.29353102  0.59793017     0.05000
C22         C  0.78854242  0.32104937  0.59226351     0.03100
H23         H  0.76285834  0.25437808  0.56494902     0.08200
H24         H  0.79347994  0.33964998  0.60894716     0.07000
N25         N  0.51328305  0.79973651  0.30203831    -0.27400
N26         N  0.52912702  0.81877506  0.32095254    -0.35200
C27         C  0.56000321  0.81389651  0.31641640     0.01000
C28         C  0.56358666  0.79057805  0.29375904     0.07000
C29         C  0.53344586  0.78225324  0.28527385    -0.06100
H30         H  0.57847326  0.82537526  0.32964508     0.07700
H31         H  0.52662660  0.76369572  0.26920542     0.08900
Cu32       Cu  0.50758867  0.84774610  0.35460878     0.44200
Cu33       Cu  0.46507519  0.79513697  0.30169686     0.42000
Cu34       Cu  0.42344049  0.83571748  0.36281052     0.43900
N35         N  0.47976568  0.87141837  0.38774498    -0.34800
N36         N  0.44917128  0.86708780  0.39040376    -0.29000
C37         C  0.43822696  0.88540256  0.41383222    -0.05100
C38         C  0.46305861  0.90193527  0.42683194     0.07100
C39         C  0.48903469  0.89247996  0.40969090     0.00900
H40         H  0.41398886  0.88626856  0.42116363     0.08600
H41         H  0.51295489  0.90025543  0.41302540     0.07600
N42         N  0.40223939  0.80439949  0.33153256    -0.36200
N43         N  0.41734251  0.79049271  0.30825212    -0.28400
C44         C  0.39685568  0.77380462  0.29075866    -0.03600
C45         C  0.36735326  0.77710085  0.30382127     0.05000
C46         C  0.37178435  0.79649893  0.32978091     0.03100
H47         H  0.40287865  0.76096102  0.26962474     0.08200
H48         H  0.35393894  0.80507722  0.34565979     0.07000
N49         N  0.28017645  0.42720013  0.81831772    -0.27400
N50         N  0.29781590  0.41204890  0.83894922    -0.35200
C51         C  0.29313926  0.38099517  0.83549072     0.01000
C52         C  0.27152936  0.37661351  0.81150340     0.07000
C53         C  0.26384965  0.40632316  0.80111118    -0.06100
H54         H  0.30473423  0.36299950  0.84920720     0.07700
H55         H  0.24777182  0.41231416  0.78227515     0.08900
Cu56       Cu  0.32768033  0.43469277  0.87010778     0.44200
Cu57       Cu  0.27905960  0.47541087  0.81439903     0.42000
Cu58       Cu  0.33332920  0.51982091  0.86306352     0.43900
N59         N  0.35635797  0.46236360  0.89815641    -0.34800
N60         N  0.35856109  0.49327642  0.89591224    -0.29000
C61         C  0.37966441  0.50352775  0.91730975    -0.05100
C62         C  0.39131003  0.47780215  0.93354812     0.07100
C63         C  0.37603095  0.45215549  0.92074525     0.00900
H64         H  0.38660476  0.52781951  0.92026571     0.08600
H65         H  0.37936316  0.42776592  0.92696035     0.07600
N66         N  0.30221457  0.54009252  0.83082732    -0.36200
N67         N  0.28146192  0.52374394  0.81442447    -0.28400
C68         C  0.26234025  0.54351415  0.79893638    -0.03600
C69         C  0.27165131  0.57397804  0.80538845     0.05000
C70         C  0.29726227  0.57082370  0.82547454     0.03100
H71         H  0.24244146  0.53617390  0.78488891     0.08200
H72         H  0.31063751  0.58955447  0.83632796     0.07000
N73         N  0.14814178  0.29046037  0.04938472    -0.27400
N74         N  0.12170707  0.30046543  0.06192002    -0.35200
C75         C  0.12071035  0.29170570  0.09237036     0.01000
C76         C  0.14819807  0.27595700  0.09949298     0.07000
C77         C  0.16501010  0.27565784  0.07163698    -0.06100
H78         H  0.10173365  0.29713591  0.10830773     0.07700
H79         H  0.18800699  0.26572594  0.06790165     0.08900
Cu80       Cu  0.09019401  0.32849128  0.03779101     0.44200
Cu81       Cu  0.15906903  0.29607539  0.00231648     0.42000
Cu82       Cu  0.10667065  0.34501640  0.95568906     0.43900
N83         N  0.06530306  0.36046800  0.01089552    -0.34800
N84         N  0.07099852  0.36654292  0.98084534    -0.29000
C85         C  0.05073825  0.38855955  0.97069661    -0.05100
C86         C  0.03172683  0.39687457  0.99572783     0.07100
C87         C  0.04165855  0.37869436  0.02079553     0.00900
H88         H  0.05031749  0.39821959  0.94707232     0.08600
H89         H  0.03248221  0.37878063  0.04457305     0.07600
N90         N  0.14148175  0.31686063  0.93668601    -0.36200
N91         N  0.16015060  0.29873845  0.95367874    -0.28400
C92         C  0.17716893  0.28064108  0.93423383    -0.03600
C93         C  0.16896288  0.28785239  0.90351929     0.05000
C94         C  0.14643275  0.31102470  0.90592803     0.03100
H95         H  0.19317883  0.26252998  0.94192787     0.08200
H96         H  0.13346886  0.32169120  0.88677235     0.07000
N97         N  0.27600107  0.92107068  0.17241018    -0.27400
N98         N  0.29385927  0.90648989  0.15173466    -0.35200
C99         C  0.28950404  0.87536605  0.15465286     0.01000
C100        C  0.26865673  0.86998248  0.17916225     0.07000
C101        C  0.26083851  0.89966946  0.18993911    -0.06100
H102        H  0.30114309  0.85797445  0.14028362     0.07700
H103        H  0.24557993  0.90540129  0.20943680     0.08900
Cu104      Cu  0.32639848  0.92982759  0.12405617     0.44200
Cu105      Cu  0.27279492  0.96930635  0.17520413     0.42000
Cu106      Cu  0.33870168  0.01234143  0.14295498     0.43900
N107        N  0.36018948  0.95778984  0.10290285    -0.34800
N108        N  0.36471781  0.98787273  0.10931692    -0.29000
C109        C  0.38749797  0.99900054  0.09033766    -0.05100
C110        C  0.39795470  0.97460427  0.07147612     0.07100
C111        C  0.38020120  0.94889134  0.08019806     0.00900
H112        H  0.39571830  0.02303906  0.09019589     0.08600
H113        H  0.38131153  0.92548108  0.07032423     0.07600
N114        N  0.30360657  0.03228861  0.17063282    -0.36200
N115        N  0.27761111  0.01737709  0.17825510    -0.28400
C116        C  0.25718282  0.03787723  0.19068106    -0.03600
C117        C  0.27133923  0.06721420  0.19242253     0.05000
C118        C  0.30106070  0.06234124  0.17983423     0.03100
H119        H  0.23361976  0.03161168  0.19731394     0.08200
H120        H  0.31960649  0.07943217  0.17717391     0.07000
N121        N  0.77092923  0.64502367  0.45644166    -0.27400
N122        N  0.79379743  0.63303852  0.43932335    -0.35200
C123        C  0.78935502  0.64069140  0.40891185     0.01000
C124        C  0.76247831  0.65852757  0.40673351     0.07000
C125        C  0.75130170  0.66087427  0.43728579    -0.06100
H126        H  0.80483351  0.63417779  0.38981771     0.07700
H127        H  0.73077742  0.67355594  0.44505645     0.08900
Cu128      Cu  0.83075077  0.60820179  0.45827174     0.44200
Cu129      Cu  0.76999462  0.64139994  0.50532875     0.42000
Cu130      Cu  0.84534094  0.62155745  0.54097863     0.43900
N131        N  0.86386269  0.58375880  0.48381195    -0.34800
N132        N  0.86929086  0.58830969  0.51421438    -0.29000
C133        C  0.89039034  0.56698744  0.52413052    -0.05100
C134        C  0.89860661  0.54837976  0.49863834     0.07100
C135        C  0.88151202  0.55981201  0.47346844     0.00900
H136        H  0.89892070  0.56502937  0.54811956     0.08600
H137        H  0.88138999  0.55098877  0.44950948     0.07600
N138        N  0.80949871  0.64512436  0.56428647    -0.36200
N139        N  0.78082006  0.64714124  0.55276883    -0.28400
C140        C  0.76168172  0.65801874  0.57532294    -0.03600
C141        C  0.77917841  0.66487414  0.60217798     0.05000
C142        C  0.80961851  0.65654266  0.59390307     0.03100
H143        H  0.73673491  0.66074352  0.57208206     0.08200
H144        H  0.83052789  0.65859768  0.60815538     0.07000
N145        N  0.11931118  0.66097073  0.04675338    -0.27400
N146        N  0.12000494  0.63230132  0.05860807    -0.35200
C147        C  0.13329466  0.63321322  0.08733295     0.01000
C148        C  0.14024995  0.66413362  0.09508105     0.07000
C149        C  0.13075454  0.68106802  0.06854964    -0.06100
H150        H  0.13757934  0.61255057  0.10155287     0.07700
H151        H  0.13213100  0.70615588  0.06505486     0.08900
Cu152      Cu  0.09918203  0.59353943  0.03756125     0.44200
Cu153      Cu  0.10908479  0.66975337  0.99915070     0.42000
Cu154      Cu  0.09563490  0.59642174  0.95577971     0.43900
N155        N  0.07041111  0.56343750  0.01213545    -0.34800
N156        N  0.06901890  0.56452612  0.98104621    -0.29000
C157        C  0.04654299  0.54471553  0.97084204    -0.05100
C158        C  0.03306548  0.53056703  0.99692935     0.07100
C159        C  0.04886544  0.54291177  0.02272010     0.00900
H160        H  0.03993176  0.54152861  0.94638162     0.08600
H161        H  0.04444610  0.53801290  0.04734924     0.07600
N162        N  0.11550763  0.63648379  0.93664980    -0.36200
N163        N  0.11588927  0.66426691  0.95050091    -0.28400
C164        C  0.12641794  0.68568587  0.92961511    -0.03600
C165        C  0.13426187  0.67049148  0.90155553     0.05000
C166        C  0.12728844  0.63920156  0.90749348     0.03100
H167        H  0.12834734  0.71044944  0.93484202     0.08200
H168        H  0.13070533  0.61946685  0.89181485     0.07000
O169        O  0.99605411  0.43175546  0.97052918    -0.73000
O170        O  0.92800394  0.49727666  0.97367429    -0.74000
O171        O  0.99509635  0.49818379  0.97136084    -0.62600
O172        O  0.92951374  0.42997241  0.97291418    -0.71000
O173        O  0.93061038  0.43011227  0.02529947    -0.70600
O174        O  0.99749742  0.49681673  0.02369014    -0.61800
O175        O  0.93068577  0.49736250  0.02599005    -0.74300
O176        O  0.99672315  0.43034587  0.02292561    -0.73100
Cu177      Cu  0.96197512  0.46438320  0.97027451     1.04600
Cu178      Cu  0.96384737  0.46371949  0.02627887     1.04300
C179        C  0.00699189  0.42074431  0.99634507     0.93200
C180        C  0.91888448  0.50790353  0.00034085     0.92300
C181        C  0.00724438  0.50757234  0.99732580     0.84500
C182        C  0.92024095  0.41885588  0.99932423     0.90700
N183        N  0.64821238  0.92441415  0.18306963    -0.27400
N184        N  0.62855871  0.90846467  0.16494287    -0.35200
C185        C  0.63216555  0.87758580  0.17082963     0.01000
C186        C  0.65522479  0.87408463  0.19369157     0.07000
C187        C  0.66487414  0.90425594  0.20081048    -0.06100
H188        H  0.61946461  0.85902567  0.15891013     0.07700
H189        H  0.68319223  0.91102853  0.21717114     0.08900
Cu190      Cu  0.59895039  0.92998987  0.13213370     0.44200
Cu191      Cu  0.65234186  0.97279694  0.18227179     0.42000
Cu192      Cu  0.61004432  0.01461686  0.12158104     0.43900
N193        N  0.57234176  0.95756987  0.10135840    -0.34800
N194        N  0.57634804  0.98817672  0.09761368    -0.29000
C195        C  0.55482803  0.99889743  0.07694898    -0.05100
C196        C  0.53649696  0.97387733  0.06706288     0.07100
C197        C  0.54834641  0.94805631  0.08293353     0.00900
H198        H  0.55270548  0.02311084  0.06966254     0.08600
H199        H  0.53995437  0.92408290  0.08141081     0.07600
N200        N  0.63980629  0.03641385  0.15399718    -0.36200
N201        N  0.65358547  0.02108051  0.17729319    -0.28400
C202        C  0.66707203  0.04180934  0.19703163    -0.03600
C203        C  0.66205826  0.07180903  0.18552727     0.05000
C204        C  0.64494220  0.06737512  0.15792088     0.03100
H205        H  0.67868424  0.03550519  0.21885943     0.08200
H206        H  0.63572824  0.08540057  0.14250854     0.07000
O207        O  0.43173607  0.94943598  0.03510632    -0.73000
O208        O  0.49717849  0.94973812  0.96739790    -0.74000
O209        O  0.49850251  0.94876000  0.03423519    -0.62600
O210        O  0.43014760  0.95037205  0.96819027    -0.71000
O211        O  0.43042360  0.00246133  0.96911414    -0.70600
O212        O  0.50002985  0.00084202  0.03400810    -0.61800
O213        O  0.49713791  0.00186297  0.96694727    -0.74300
O214        O  0.43296357  0.00151182  0.03677672    -0.73100
Cu215      Cu  0.46433765  0.94779468  0.00119542     1.04600
Cu216      Cu  0.46510534  0.00351191  0.00176698     1.04300
C217        C  0.42208191  0.97533083  0.04671153     0.93200
C218        C  0.50762982  0.97573851  0.95664380     0.92300
C219        C  0.51038601  0.97453568  0.04412648     0.84500
C220        C  0.41945050  0.97662587  0.95831275     0.90700
N221        N  0.78306803  0.28236925  0.04901286    -0.27400
N222        N  0.80759945  0.29404808  0.06412420    -0.35200
C223        C  0.80480640  0.28759243  0.09503706     0.01000
C224        C  0.77678279  0.27179582  0.09978365     0.07000
C225        C  0.76370201  0.26887213  0.06998867    -0.06100
H226        H  0.82149390  0.29482934  0.11289693     0.07700
H227        H  0.74138145  0.25832628  0.06401660     0.08900
Cu228      Cu  0.84153890  0.32201104  0.04294359     0.44200
Cu229      Cu  0.77730890  0.28423494  0.00054049     0.42000
Cu230      Cu  0.84049256  0.32194663  0.95834568     0.43900
N231        N  0.86781824  0.35315110  0.01595879    -0.34800
N232        N  0.86737848  0.35303919  0.98476107    -0.29000
C233        C  0.88559580  0.37654734  0.97409438    -0.05100
C234        C  0.89807184  0.39229015  0.99980822     0.07100
C235        C  0.88637072  0.37677375  0.02599467     0.00900
H236        H  0.88940086  0.38182963  0.94940649     0.08600
H237        H  0.89091927  0.38228694  0.05050505     0.07600
N238        N  0.80633625  0.29448065  0.93687247    -0.36200
N239        N  0.78203312  0.28257484  0.95197799    -0.28400
C240        C  0.76252471  0.26910932  0.93094461    -0.03600
C241        C  0.77533839  0.27236866  0.90113241     0.05000
C242        C  0.80326996  0.28833396  0.90591203     0.03100
H243        H  0.74039649  0.25825834  0.93687913     0.08200
H244        H  0.81970802  0.29584255  0.88805106     0.07000
C245        C  0.69745631  0.70274638  0.26508404     0.45400
H246        H  0.68112827  0.68714830  0.27785482    -0.03600
C247        C  0.73579140  0.73946827  0.23547958     0.45400
H248        H  0.75209661  0.75514993  0.22273815    -0.03600
C249        C  0.68267865  0.73501168  0.25679156    -0.17300
C250        C  0.72736719  0.71021266  0.28458272    -0.17100
C251        C  0.70917937  0.68857627  0.23334437    -0.17500
C252        C  0.70314679  0.75460691  0.24080711    -0.17500
C253        C  0.74800762  0.72974186  0.26871337    -0.17000
C254        C  0.72963939  0.70833541  0.21749464    -0.17300
N255        N  0.65669404  0.42370671  0.16802236    -0.27400
N256        N  0.63102700  0.41006905  0.15712676    -0.35200
C257        C  0.63053303  0.38002325  0.16688229     0.01000
C258        C  0.65754848  0.37411674  0.18420699     0.07000
C259        C  0.67362023  0.40246106  0.18421060    -0.06100
H260        H  0.61182728  0.36363320  0.16166195     0.07700
H261        H  0.69591549  0.40740601  0.19536139     0.08900
Cu262      Cu  0.59888685  0.43257824  0.12783510     0.44200
Cu263      Cu  0.66547148  0.47141524  0.16337375     0.42000
Cu264      Cu  0.61006070  0.51624217  0.11634241     0.43900
N265        N  0.57248811  0.45931661  0.09639220    -0.34800
N266        N  0.57634876  0.48988857  0.09240568    -0.29000
C267        C  0.55545836  0.50012963  0.07088563    -0.05100
C268        C  0.53782255  0.47476696  0.06060877     0.07100
C269        C  0.54928900  0.44927388  0.07724603     0.00900
H270        H  0.55329304  0.52428740  0.06325680     0.08600
H271        H  0.54113389  0.42525808  0.07583502     0.07600
N272        N  0.64441308  0.53654094  0.14487122    -0.36200
N273        N  0.66426884  0.52012319  0.16225452    -0.28400
C274        C  0.68094081  0.53989377  0.18055563    -0.03600
C275        C  0.67135054  0.57029492  0.17430601     0.05000
C276        C  0.64829252  0.56724773  0.15137662     0.03100
H277        H  0.69776124  0.53256232  0.19819203     0.08200
H278        H  0.63437034  0.58589997  0.14121363     0.07000
C279        C  0.72885055  0.20607947  0.23663592     0.45400
H280        H  0.74195763  0.19072502  0.22111571    -0.03600
C281        C  0.69500136  0.24116024  0.27218945     0.45400
H282        H  0.68035376  0.25663659  0.28608172    -0.03600
C283        C  0.72028434  0.23671938  0.22033967    -0.17300
C284        C  0.69717512  0.19036974  0.24668951    -0.17100
C285        C  0.74669348  0.21711259  0.26670747    -0.17500
C286        C  0.70146013  0.25558733  0.23870707    -0.17500
C287        C  0.67962090  0.20915651  0.26650069    -0.17000
C288        C  0.72690231  0.23245713  0.28780439    -0.17300
N289        N  0.51351667  0.16055473  0.33718276    -0.27400
N290        N  0.52856437  0.14424137  0.35886295    -0.35200
C291        C  0.55950307  0.14954175  0.35576079     0.01000
C292        C  0.56427038  0.16922960  0.32996449     0.07000
C293        C  0.53435130  0.17537735  0.31878221    -0.06100
H294        H  0.57718507  0.13918242  0.37082304     0.07700
H295        H  0.52806154  0.18906743  0.29821247     0.08900
Cu296      Cu  0.50546949  0.11156358  0.38699394     0.44200
Cu297      Cu  0.46536300  0.16186749  0.33387482     0.42000
Cu298      Cu  0.42384917  0.09423898  0.36196128     0.43900
N299        N  0.47736738  0.07656181  0.40647251    -0.34800
N300        N  0.44816369  0.07016490  0.39785866    -0.29000
C301        C  0.43734782  0.04650534  0.41606407    -0.05100
C302        C  0.46095803  0.03739755  0.43668195     0.07100
C303        C  0.48593315  0.05688210  0.42978243     0.00900
H304        H  0.41413794  0.03639416  0.41415628     0.08600
H305        H  0.50872521  0.05685260  0.44097963     0.07600
N306        N  0.40338383  0.12933875  0.33379123    -0.36200
N307        N  0.41773282  0.15622458  0.32846524    -0.28400
C308        C  0.39722931  0.17701570  0.31660077    -0.03600
C309        C  0.36838581  0.16237808  0.31244183     0.05000
C310        C  0.37372678  0.13176083  0.32320286     0.03100
H311        H  0.40315904  0.20130797  0.31239217     0.08200
H312        H  0.35710894  0.11260759  0.32394421     0.07000
N313        N  0.00983520  0.16634814  0.67493317    -0.27400
N314        N  0.02560430  0.14704483  0.65641296    -0.35200
C315        C  0.05646578  0.15108462  0.66176672     0.01000
C316        C  0.06024454  0.17377211  0.68495789     0.07000
C317        C  0.03015993  0.18287372  0.69271135    -0.06100
H318        H  0.07479251  0.13793881  0.65019799     0.07700
H319        H  0.02348887  0.19967980  0.71058634     0.08900
Cu320      Cu  0.00438404  0.11424328  0.62655725     0.44200
Cu321      Cu  0.96138388  0.16829000  0.67714259     0.42000
Cu322      Cu  0.92099505  0.10557401  0.63669179     0.43900
N323        N  0.97699570  0.08261383  0.60077696    -0.34800
N324        N  0.94640279  0.07967927  0.60455754    -0.29000
C325        C  0.93530530  0.05803474  0.58423740    -0.05100
C326        C  0.96014468  0.04657861  0.56693216     0.07100
C327        C  0.98623372  0.06259500  0.57806182     0.00900
H328        H  0.91099732  0.05109873  0.58234296     0.08600
H329        H  0.01016012  0.06000455  0.57011009     0.07600
N330        N  0.89899502  0.13762491  0.66559321    -0.36200
N331        N  0.91331713  0.16175295  0.67895159    -0.28400
C332        C  0.89187924  0.17966536  0.69357154    -0.03600
C333        C  0.86273310  0.16586899  0.68945363     0.05000
C334        C  0.86823501  0.13914865  0.67180119     0.03100
H335        H  0.89706930  0.20127805  0.70593758     0.08200
H336        H  0.85103145  0.12242119  0.66338409     0.07000
O337        O  0.98503823  0.01154316  0.53161484    -0.73000
O338        O  0.98557038  0.94469622  0.46532476    -0.74000
O339        O  0.98424229  0.01119882  0.46448725    -0.62600
O340        O  0.98456186  0.94457843  0.53247691    -0.71000
O341        O  0.93256786  0.94541692  0.53245273    -0.70600
O342        O  0.93224156  0.01081199  0.46473539    -0.61800
O343        O  0.93359464  0.94367412  0.46500469    -0.74300
O344        O  0.93304488  0.01181865  0.53191102    -0.73100
Cu345      Cu  0.98665000  0.97802708  0.49849153     1.04600
Cu346      Cu  0.93102668  0.97789280  0.49846410     1.04300
C347        C  0.95927616  0.02221808  0.54230634     0.93200
C348        C  0.95990112  0.93355315  0.45467812     0.92300
C349        C  0.95803448  0.02141026  0.45396751     0.84500
C350        C  0.95833709  0.93479364  0.54330743     0.90700
N351        N  0.14695816  0.29858732  0.54610216    -0.27400
N352        N  0.12649689  0.31579180  0.56171697    -0.35200
C353        C  0.12845784  0.30859053  0.59259669     0.01000
C354        C  0.15134943  0.28583795  0.59637745     0.07000
C355        C  0.16260649  0.28014926  0.56642017    -0.06100
H356        H  0.11490783  0.31966157  0.61100318     0.07700
H357        H  0.18139555  0.26443931  0.55996604     0.08900
Cu358      Cu  0.09839157  0.34912056  0.53960762     0.44200
Cu359      Cu  0.15348100  0.30189726  0.49819396     0.42000
Cu360      Cu  0.11186721  0.36240186  0.45516232     0.43900
N361        N  0.07247027  0.37997808  0.51182480    -0.34800
N362        N  0.07697554  0.38466624  0.48127870    -0.29000
C363        C  0.05539544  0.40522149  0.47066806    -0.05100
C364        C  0.03662485  0.41400327  0.49577099     0.07100
C365        C  0.04820915  0.39762641  0.52143520     0.00900
H366        H  0.05365686  0.41332904  0.44653982     0.08600
H367        H  0.03951761  0.39833564  0.54539857     0.07600
N368        N  0.14373503  0.33158668  0.43454700    -0.36200
N369        N  0.15730145  0.30856455  0.45033849    -0.28400
C370        C  0.17210006  0.28950688  0.43009163    -0.03600
C371        C  0.16814336  0.30114403  0.39992881     0.05000
C372        C  0.15032959  0.32814342  0.40369169     0.03100
H373        H  0.18346019  0.26782977  0.43672758     0.08200
H374        H  0.14120096  0.34306684  0.38518906     0.07000
N375        N  0.28418262  0.92675882  0.81779742    -0.27400
N376        N  0.29474950  0.91293300  0.84360827    -0.35200
C377        C  0.28558341  0.88268149  0.84326464     0.01000
C378        C  0.26909121  0.87703298  0.81550826     0.07000
C379        C  0.26882377  0.90561069  0.79998057    -0.06100
H380        H  0.29113638  0.86586611  0.86156493     0.07700
H381        H  0.25853830  0.91064574  0.77720106     0.08900
Cu382      Cu  0.32410009  0.93537728  0.87599334     0.44200
Cu383      Cu  0.28947895  0.97403893  0.80866786     0.42000
Cu384      Cu  0.33804294  0.01884913  0.86220905     0.43900
N385        N  0.35663367  0.96212164  0.90125775    -0.34800
N386        N  0.36146983  0.99247955  0.89658641    -0.29000
C387        C  0.38414956  0.00239780  0.91647188    -0.05100
C388        C  0.39432901  0.97704898  0.93422675     0.07100
C389        C  0.37638727  0.95192523  0.92388760     0.00900
H390        H  0.39303990  0.02618043  0.91746222     0.08600
H391        H  0.37769387  0.92790588  0.93210838     0.07600
N392        N  0.31065707  0.03902397  0.82657664    -0.36200
N393        N  0.29254840  0.02238445  0.80749420    -0.28400
C394        C  0.27530986  0.04190150  0.78958298    -0.03600
C395        C  0.28306919  0.07246406  0.79740213     0.05000
C396        C  0.30573365  0.06972987  0.82084430     0.03100
H397        H  0.25735274  0.03437418  0.77317889     0.08200
H398        H  0.31666397  0.08867667  0.83383279     0.07000
C399        C  0.19789255  0.20675771  0.76564698     0.45400
H400        H  0.18370749  0.19130357  0.78093373    -0.03600
C401        C  0.23116870  0.24303822  0.72989056     0.45400
H402        H  0.24529840  0.25851076  0.71452678    -0.03600
C403        C  0.22922529  0.19142388  0.75541982    -0.17300
C404        C  0.18067425  0.21617214  0.73466137    -0.17100
C405        C  0.20714512  0.23805082  0.78201063    -0.17500
C406        C  0.24696572  0.21085699  0.73620619    -0.17500
C407        C  0.19856162  0.23553333  0.71558023    -0.17000
C408        C  0.22479994  0.25750162  0.76283916    -0.17300
N409        N  0.50724504  0.16228346  0.66329339    -0.27400
N410        N  0.52108834  0.13471124  0.66083293    -0.35200
C411        C  0.55042944  0.13741687  0.67214676     0.01000
C412        C  0.55591506  0.16850026  0.68098737     0.07000
C413        C  0.52773887  0.18347617  0.67477232    -0.06100
H414        H  0.56675997  0.11808788  0.67350592     0.07700
H415        H  0.52227589  0.20800554  0.67810804     0.08900
Cu416      Cu  0.50020651  0.09576467  0.63868340     0.44200
Cu417      Cu  0.45973347  0.16811128  0.65697267     0.42000
Cu418      Cu  0.41652975  0.09828949  0.63306482     0.43900
N419        N  0.47410422  0.06438245  0.61068678    -0.34800
N420        N  0.44319546  0.06540633  0.60881994    -0.29000
C421        C  0.43322627  0.04411382  0.58746798    -0.05100
C422        C  0.45905786  0.02895062  0.57501515     0.07100
C423        C  0.48459092  0.04240209  0.59035928     0.00900
H424        H  0.40899775  0.04078229  0.58061278     0.08600
H425        H  0.50904926  0.03734599  0.58621777     0.07600
N426        N  0.39679011  0.13604307  0.65689611    -0.36200
N427        N  0.41245923  0.16173170  0.66477224    -0.28400
C428        C  0.39336756  0.18124799  0.68051504    -0.03600
C429        C  0.36434313  0.16716896  0.68258909     0.05000
C430        C  0.36717500  0.13866568  0.66727868     0.03100
H431        H  0.40018929  0.20390662  0.68992960     0.08200
H432        H  0.34906449  0.12113958  0.66398136     0.07000
C433        C  0.69138709  0.24337848  0.72923896     0.45400
H434        H  0.67625479  0.25930574  0.71540667    -0.03600
C435        C  0.72572413  0.20566869  0.76224979     0.45400
H436        H  0.74011821  0.18896725  0.77591514    -0.03600
C437        C  0.72377433  0.23647644  0.71365939    -0.17300
C438        C  0.69908445  0.25673230  0.76247732    -0.17100
C439        C  0.67555441  0.21102094  0.73482541    -0.17500
C440        C  0.74144650  0.21503917  0.73069758    -0.17500
C441        C  0.71873641  0.23719890  0.77972517    -0.17000
C442        C  0.69351550  0.19133265  0.75327795    -0.17300
N443        N  0.64151255  0.42639361  0.81858695    -0.27400
N444        N  0.61547563  0.41196331  0.82718936    -0.35200
C445        C  0.61758673  0.38142585  0.81949054     0.01000
C446        C  0.64654854  0.37631642  0.80579763     0.07000
C447        C  0.66108727  0.40537310  0.80567593    -0.06100
H448        H  0.59959792  0.36411002  0.82405655     0.07700
H449        H  0.68422618  0.41086070  0.79688719     0.08900
Cu450      Cu  0.57969678  0.43391744  0.85166373     0.44200
Cu451      Cu  0.64832843  0.47427842  0.82251852     0.42000
Cu452      Cu  0.58209019  0.51816511  0.85243732     0.43900
N453        N  0.55246982  0.46111919  0.88145498    -0.34800
N454        N  0.55331185  0.49213991  0.88180278    -0.29000
C455        C  0.53530576  0.50267224  0.90556841    -0.05100
C456        C  0.52268639  0.47698824  0.92096778     0.07100
C457        C  0.53393363  0.45105154  0.90497938     0.00900
H458        H  0.53243261  0.52714681  0.91176345     0.08600
H459        H  0.52973877  0.42663563  0.91061207     0.07600
N460        N  0.61902443  0.53811244  0.82793536    -0.36200
N461        N  0.64424890  0.52248370  0.81917800    -0.28400
C462        C  0.66494996  0.54263262  0.80647914    -0.03600
C463        C  0.65197373  0.57236194  0.80691301     0.05000
C464        C  0.62274602  0.56852284  0.82048617     0.03100
H465        H  0.68780302  0.53610774  0.79775087     0.08200
H466        H  0.60566657  0.58663345  0.82522664     0.07000
C467        C  0.73292438  0.74264048  0.77345863     0.45400
H468        H  0.74642145  0.75762826  0.78987523    -0.03600
C469        C  0.70070703  0.70754134  0.73557356     0.45400
H470        H  0.68711873  0.69263988  0.71913091    -0.03600
C471        C  0.70058537  0.75704058  0.76481119    -0.17300
C472        C  0.74990083  0.73676211  0.74166067    -0.17100
C473        C  0.72602883  0.70975917  0.78747004    -0.17500
C474        C  0.68370976  0.73875172  0.74357380    -0.17500
C475        C  0.73319039  0.71688203  0.72197551    -0.17000
C476        C  0.70755323  0.69153687  0.76781014    -0.17300
N477        N  0.51100914  0.78591288  0.68514866    -0.27400
N478        N  0.52560033  0.79865822  0.66082530    -0.35200
C479        C  0.55651038  0.79332978  0.66358950     0.01000
C480        C  0.56193819  0.77684989  0.69124795     0.07000
C481        C  0.53244312  0.77257229  0.70431624    -0.06100
H482        H  0.57386075  0.80120529  0.64678897     0.07700
H483        H  0.52697322  0.76073911  0.72619182     0.08900
Cu484      Cu  0.50339661  0.82469849  0.62588854     0.44200
Cu485      Cu  0.46238074  0.78603280  0.68983174     0.42000
Cu486      Cu  0.41986192  0.82030427  0.62290185     0.43900
N487        N  0.47651595  0.85288822  0.59640386    -0.34800
N488        N  0.44561625  0.85134783  0.59515922    -0.29000
C489        C  0.43502637  0.87376583  0.57538629    -0.05100
C490        C  0.46054322  0.89017693  0.56365703     0.07100
C491        C  0.48643559  0.87621316  0.57745375     0.00900
H492        H  0.41055742  0.87816855  0.57038521     0.08600
H493        H  0.51069286  0.88293615  0.57446083     0.07600
N494        N  0.39899450  0.79420613  0.65872969    -0.36200
N495        N  0.41386563  0.78401021  0.68416505    -0.28400
C496        C  0.39274671  0.77193811  0.70440433    -0.03600
C497        C  0.36317375  0.77418277  0.69091345     0.05000
C498        C  0.36824232  0.78811696  0.66179831     0.03100
H499        H  0.39845894  0.76276772  0.72749226     0.08200
H500        H  0.35066573  0.79439352  0.64448703     0.07000
C501        C  0.18896889  0.74442490  0.76884898     0.45400
H502        H  0.17391697  0.75944864  0.78371869    -0.03600
C503        C  0.22403091  0.70891227  0.73435613     0.45400
H504        H  0.23906498  0.69402758  0.71935216    -0.03600
C505        C  0.17452456  0.73786137  0.73570774    -0.17300
C506        C  0.22196967  0.75880360  0.76278764    -0.17100
C507        C  0.19493651  0.71179909  0.78407704    -0.17500
C508        C  0.19286649  0.71801762  0.71767847    -0.17500
C509        C  0.24028635  0.74029457  0.74329860    -0.17000
C510        C  0.21469991  0.69315579  0.76621811    -0.17300
N511        N  0.01463377  0.78666661  0.32733245    -0.27400
N512        N  0.02917724  0.81167645  0.33874125    -0.35200
C513        C  0.05953996  0.81035980  0.33012604     0.01000
C514        C  0.06449692  0.78289207  0.31300919     0.07000
C515        C  0.03537940  0.76851681  0.31202384    -0.06100
H516        H  0.07676385  0.82811123  0.33593321     0.07700
H517        H  0.02958111  0.74641972  0.30083659     0.08900
Cu518      Cu  0.00687807  0.84548869  0.36694934     0.44200
Cu519      Cu  0.96668471  0.77924744  0.33015888     0.42000
Cu520      Cu  0.92267269  0.83562783  0.37477522     0.43900
N521        N  0.97852766  0.87355612  0.39596984    -0.34800
N522        N  0.94783426  0.86993216  0.39832825    -0.29000
C523        C  0.93641076  0.89100047  0.41897325    -0.05100
C524        C  0.96105603  0.90868695  0.43047990     0.07100
C525        C  0.98742129  0.89700916  0.41542158     0.00900
H526        H  0.91203938  0.89279209  0.42561409     0.08600
H527        H  0.01137185  0.90476805  0.41866613     0.07600
N528        N  0.90208687  0.80033842  0.34836071    -0.36200
N529        N  0.91810329  0.77988998  0.33143979    -0.28400
C530        C  0.89789844  0.76203155  0.31480905    -0.03600
C531        C  0.86772242  0.77160827  0.32184450     0.05000
C532        C  0.87132735  0.79581562  0.34333535     0.03100
H533        H  0.90468904  0.74418810  0.29800660     0.08200
H534        H  0.85296239  0.80990707  0.35365084     0.07000
C535        C  0.23077460  0.70111489  0.26364532     0.45400
H536        H  0.24568033  0.68620281  0.27878749    -0.03600
C537        C  0.19500282  0.73574325  0.22884031     0.45400
H538        H  0.17984178  0.75022462  0.21356653    -0.03600
C539        C  0.19954893  0.70951072  0.28005280    -0.17300
C540        C  0.24627439  0.73299657  0.25490298    -0.17100
C541        C  0.22177105  0.68516376  0.23181160    -0.17500
C542        C  0.18087365  0.72923095  0.26215713    -0.17500
C543        C  0.22767596  0.75081396  0.23488305    -0.17000
C544        C  0.20165243  0.70328035  0.21369230    -0.17300
N545        N  0.27801399  0.42164238  0.16933822    -0.27400
N546        N  0.30273571  0.40627209  0.15883807    -0.35200
C547        C  0.29981131  0.37581382  0.16658272     0.01000
C548        C  0.27174228  0.37174138  0.18242343     0.07000
C549        C  0.25846020  0.40132574  0.18353142    -0.06100
H550        H  0.31703400  0.35796308  0.16137272     0.07700
H551        H  0.23658790  0.40779982  0.19455499     0.08900
Cu552      Cu  0.33925567  0.42750088  0.13446360     0.44200
Cu553      Cu  0.27446336  0.46998777  0.16859406     0.42000
Cu554      Cu  0.34500932  0.51097774  0.14423479     0.43900
N555        N  0.37004785  0.45536768  0.10882493    -0.34800
N556        N  0.37211008  0.48614208  0.11234502    -0.29000
C557        C  0.39221121  0.49770455  0.09083435    -0.05100
C558        C  0.40337109  0.47297054  0.07298057     0.07100
C559        C  0.38891762  0.44647915  0.08509499     0.00900
H560        H  0.39769351  0.52235199  0.08794234     0.08600
H561        H  0.39121815  0.42262268  0.07667115     0.07600
N562        N  0.30945001  0.53136035  0.17033403    -0.36200
N563        N  0.28275631  0.51707493  0.17694396    -0.28400
C564        C  0.26319935  0.53770712  0.19049815    -0.03600
C565        C  0.27835955  0.56634319  0.19277682     0.05000
C566        C  0.30778320  0.56133728  0.18006083     0.03100
H567        H  0.23940795  0.53242488  0.19747900     0.08200
H568        H  0.32614152  0.57856344  0.17683085     0.07000
N569        N  0.15265921  0.64372246  0.54685991    -0.27400
N570        N  0.12400054  0.64476485  0.55844211    -0.35200
C571        C  0.12483798  0.65803061  0.58710450     0.01000
C572        C  0.15571776  0.66428171  0.59524557     0.07000
C573        C  0.17271829  0.65486232  0.56885302    -0.06100
H574        H  0.10425571  0.66205935  0.60131028     0.07700
H575        H  0.19781617  0.65559087  0.56579817     0.08900
Cu576      Cu  0.08566918  0.62256623  0.53846778     0.44200
Cu577      Cu  0.16150513  0.63233802  0.49965573     0.42000
Cu578      Cu  0.08715680  0.62136284  0.45751075     0.43900
N579        N  0.05737999  0.59201716  0.51333426    -0.34800
N580        N  0.05776119  0.59180675  0.48223054    -0.29000
C581        C  0.03983779  0.56799629  0.47164982    -0.05100
C582        C  0.02772322  0.55236107  0.49753437     0.07100
C583        C  0.03923482  0.56828897  0.52362409     0.00900
H584        H  0.03662255  0.56198591  0.44705334     0.08600
H585        H  0.03533053  0.56263258  0.54817819     0.07600
N586        N  0.12724122  0.64018487  0.43798484    -0.50600
N587        N  0.15530466  0.63887274  0.45108365    -0.28400
C588        C  0.17671795  0.64736089  0.42935534    -0.03600
C589        C  0.16125146  0.65560068  0.40150337     0.05000
C590        C  0.12984000  0.65116855  0.40851681     0.03100
H591        H  0.20162852  0.64731838  0.43380754     0.08200
H592        H  0.10998413  0.65531190  0.39318293     0.07000
N593        N  0.00900844  0.81714548  0.69283242    -0.27400
N594        N  0.01909241  0.81727541  0.66347478    -0.35200
C595        C  0.04777620  0.80438461  0.66267923     0.01000
C596        C  0.05702261  0.79703138  0.69335040     0.07000
C597        C  0.03171931  0.80613526  0.71176016    -0.06100
H598        H  0.06070191  0.80049726  0.64113311     0.07700
H599        H  0.02949869  0.80448466  0.73710554     0.08900
Cu600      Cu  0.99483476  0.84005243  0.62769687     0.44200
Cu601      Cu  0.96244343  0.82403617  0.70379903     0.42000
Cu602      Cu  0.91555801  0.86553428  0.64728024     0.43900
N603        N  0.97020712  0.87391330  0.60256434    -0.34800
N604        N  0.94141666  0.88302762  0.60950711    -0.29000
C605        C  0.93272168  0.90559407  0.58908812    -0.05100
C606        C  0.95739559  0.91135379  0.56876416     0.07100
C607        C  0.98080462  0.89096308  0.57803691     0.00900
H608        H  0.91035899  0.91747233  0.58949725     0.08600
H609        H  0.00388291  0.88872449  0.56781296     0.07600
N610        N  0.89662839  0.83823328  0.68325000    -0.36200
N611        N  0.91408224  0.82104438  0.70229252    -0.28400
C612        C  0.89569247  0.80036523  0.71752670    -0.03600
C613        C  0.86483161  0.80526541  0.70844259     0.05000
C614        C  0.86646885  0.82998247  0.68705648     0.03100
H615        H  0.90448485  0.78196737  0.73269059     0.08200
H616        H  0.84730596  0.84020062  0.67388249     0.07000
N617        N  0.65303487  0.02188386  0.82651761    -0.27400
N618        N  0.62587552  0.03490379  0.83328812    -0.35200
C619        C  0.62549387  0.06414378  0.82147613     0.01000
C620        C  0.65446149  0.07076290  0.80796837     0.07000
C621        C  0.67130950  0.04312288  0.81192398    -0.06100
H622        H  0.60540018  0.07945757  0.82286041     0.07700
H623        H  0.69519956  0.03856252  0.80503894     0.08900
Cu624      Cu  0.59254354  0.01390787  0.86236996     0.44200
Cu625      Cu  0.66120321  0.97442730  0.83260831     0.42000
Cu626      Cu  0.60660198  0.93275109  0.88258245     0.43900
N627        N  0.56663759  0.98935476  0.89600983    -0.34800
N628        N  0.57173181  0.95950684  0.90287227    -0.29000
C629        C  0.55116144  0.95013233  0.92487491    -0.05100
C630        C  0.53243632  0.97534499  0.93265773     0.07100
C631        C  0.54295334  0.99993614  0.91406144     0.00900
H632        H  0.55029949  0.92673926  0.93489956     0.08600
H633        H  0.53405691  0.02368120  0.91364397     0.07600
N634        N  0.63876658  0.91074237  0.85385297    -0.36200
N635        N  0.65722042  0.92598144  0.83412132    -0.28400
C636        C  0.67127904  0.90512352  0.81511836    -0.03600
C637        C  0.66194668  0.87516535  0.82383110     0.05000
C638        C  0.64148884  0.87974200  0.84871429     0.03100
H639        H  0.68661516  0.91142796  0.79583555     0.08200
H640        H  0.62882248  0.86193290  0.86169191     0.07000
N641        N  0.01180635  0.16292900  0.32489546    -0.27400
N642        N  0.02434074  0.13665739  0.33554376    -0.35200
C643        C  0.05502848  0.13637520  0.32869630     0.01000
C644        C  0.06222659  0.16403082  0.31326639     0.07000
C645        C  0.03427892  0.18033165  0.31126323    -0.06100
H646        H  0.07095666  0.11761988  0.33486960     0.07700
H647        H  0.03056687  0.20312269  0.30067608     0.08900
Cu648      Cu  0.99963900  0.10394796  0.36115192     0.44200
Cu649      Cu  0.96453329  0.17285605  0.32833885     0.42000
Cu650      Cu  0.91636512  0.11667349  0.37136239     0.43900
N651        N  0.97242224  0.07844221  0.39192466    -0.34800
N652        N  0.94201798  0.08268728  0.39594187    -0.29000
C653        C  0.93202069  0.06275786  0.41848645    -0.05100
C654        C  0.95748270  0.04553542  0.42917047     0.07100
C655        C  0.98263401  0.05613834  0.41183346     0.00900
H656        H  0.90815372  0.06131393  0.42687726     0.08600
H657        H  0.00669392  0.04841177  0.41366944     0.07600
N658        N  0.89834239  0.15327424  0.34387461    -0.36200
N659        N  0.91609052  0.17391488  0.32886820    -0.28400
C660        C  0.89775386  0.19315890  0.31178671    -0.03600
C661        C  0.86695626  0.18436378  0.31624344     0.05000
C662        C  0.86813523  0.15892877  0.33658809     0.03100
H663        H  0.90631949  0.21115603  0.29597236     0.08200
H664        H  0.84855148  0.14480396  0.34445133     0.07000
C665        C  0.23320028  0.23971851  0.26716235     0.45400
H666        H  0.24927625  0.25541223  0.28020364    -0.03600
C667        C  0.19653762  0.20254504  0.23593702     0.45400
H668        H  0.18120960  0.18616159  0.22282131    -0.03600
C669        C  0.22418069  0.25312736  0.23428167    -0.17300
C670        C  0.24800540  0.20702305  0.26099454    -0.17100
C671        C  0.20148527  0.23334015  0.28439944    -0.17500
C672        C  0.20320047  0.23395683  0.21833344    -0.17500
C673        C  0.22887811  0.18778794  0.24320005    -0.17000
C674        C  0.18257357  0.21209339  0.26826334    -0.17300
N675        N  0.80657645  0.66596874  0.05064212    -0.27400
N676        N  0.81708644  0.64142852  0.06660283    -0.35200
C677        C  0.80713002  0.64344461  0.09664071     0.01000
C678        C  0.78928224  0.67032839  0.09959536     0.07000
C679        C  0.78945545  0.68409928  0.07006074    -0.06100
H680        H  0.81200986  0.62632303  0.11483960     0.07700
H681        H  0.77754771  0.70539581  0.06306326     0.08900
Cu682      Cu  0.84232070  0.60488995  0.04640336     0.44200
Cu683      Cu  0.81237404  0.67174644  0.00230968     0.42000
Cu684      Cu  0.82894761  0.59783009  0.96338021     0.43900
N685        N  0.86404748  0.57088690  0.01891539    -0.34800
N686        N  0.85920984  0.56823668  0.98818985    -0.29000
C687        C  0.87771260  0.54527275  0.97681365    -0.05100
C688        C  0.89481301  0.53272820  0.00164508     0.07100
C689        C  0.88547050  0.54952165  0.02797288     0.00900
H690        H  0.87898254  0.53854639  0.95222692     0.08600
H691        H  0.89415228  0.54691493  0.05184144     0.07600
N692        N  0.80591029  0.63550007  0.94208867    -0.36200
N693        N  0.80480565  0.66385807  0.95457057    -0.28400
C694        C  0.79283786  0.68392872  0.93319758    -0.03600
C695        C  0.78453591  0.66729495  0.90614359     0.05000
C696        C  0.79292207  0.63647907  0.91318259     0.03100
H697        H  0.79030890  0.70880941  0.93741401     0.08200
H698        H  0.78978004  0.61599524  0.89844617     0.07000
O699        O  0.49352527  0.50283067  0.96119820    -0.73000
O700        O  0.43435394  0.50081393  0.03534833    -0.74000
O701        O  0.50067800  0.50130781  0.02828144    -0.62600
O702        O  0.42764690  0.50302061  0.96800830    -0.71000
O703        O  0.42756507  0.45091558  0.96657978    -0.70600
O704        O  0.50018439  0.44920058  0.02764367    -0.61800
O705        O  0.43406140  0.44872783  0.03338650    -0.74300
O706        O  0.49342494  0.45070641  0.96044679    -0.73100
Cu707      Cu  0.46405574  0.50383485  0.99831975     1.04600
Cu708      Cu  0.46382990  0.44809786  0.99699611     1.04300
C709        C  0.50235512  0.47690918  0.94890427     0.93200
C710        C  0.42494351  0.47432272  0.04599609     0.92300
C711        C  0.51175362  0.47507549  0.03769595     0.84500
C712        C  0.41651934  0.47724800  0.95732975     0.90700
O713        O  0.43568134  0.93301934  0.46478784    -0.73000
O714        O  0.43374681  0.99578700  0.53685917    -0.74000
O715        O  0.43448238  0.99983642  0.46904479    -0.62600
O716        O  0.43441651  0.92846021  0.53197537    -0.71000
O717        O  0.48638276  0.92883825  0.53241447    -0.70600
O718        O  0.48637976  0.00154375  0.47141616    -0.61800
O719        O  0.48566901  0.99569420  0.53851182    -0.74300
O720        O  0.48760841  0.93490626  0.46527156    -0.73100
Cu721      Cu  0.43274476  0.96428255  0.50070706     1.04600
Cu722      Cu  0.48827045  0.96527321  0.50198587     1.04300
C723        C  0.46205935  0.92433041  0.45353133     0.93200
C724        C  0.45947166  0.00561704  0.54902462     0.92300
C725        C  0.46050620  0.01179004  0.46019785     0.84500
C726        C  0.46040600  0.91710620  0.54170406     0.90700
O727        O  0.99657163  0.51426641  0.47097906    -0.73000
O728        O  0.93270416  0.44452442  0.47003873    -0.74000
O729        O  0.93058336  0.51156016  0.47160538    -0.62600
O730        O  0.99985573  0.44740322  0.46972709    -0.71000
O731        O  0.99916810  0.44580015  0.52208149    -0.70600
O732        O  0.93211200  0.51175448  0.52400535    -0.61800
O733        O  0.93213485  0.44477962  0.52241133    -0.74300
O734        O  0.99780567  0.51286071  0.52336042    -0.73100
Cu735      Cu  0.96490959  0.47932017  0.46874300     1.04600
Cu736      Cu  0.96534141  0.47857571  0.52477126     1.04300
C737        C  0.00660961  0.52504357  0.49728689     0.93200
C738        C  0.92185182  0.43411946  0.49611097     0.92300
C739        C  0.92131303  0.52253242  0.49806877     0.84500
C740        C  0.01059039  0.43669659  0.49578326     0.90700
C741        C  0.09682000  0.18290636  0.26993884    -0.01900
C742        C  0.09318747  0.17437279  0.30167489     0.07800
C743        C  0.11883170  0.17651717  0.32240348    -0.02000
C744        C  0.14818238  0.18692891  0.31139464    -0.02000
C745        C  0.15174704  0.19825464  0.27991388     0.07900
C746        C  0.12520470  0.19600100  0.25937848    -0.02200
Br747      Br  0.12416869  0.21444856  0.21793595    -0.00800
Br748      Br  0.06276535  0.17574916  0.24042038    -0.00900
Br749      Br  0.18265464  0.18296521  0.34031012    -0.00800
Br750      Br  0.11339808  0.16659488  0.36667336    -0.00800
C751        C  0.25726303  0.31521702  0.17667898    -0.01900
C752        C  0.25926552  0.34204961  0.19579364     0.07800
C753        C  0.25038039  0.34007610  0.22771047    -0.02000
C754        C  0.23870631  0.31162536  0.24021007    -0.02000
C755        C  0.23748221  0.28385033  0.22136611     0.07900
C756        C  0.24841508  0.28614514  0.18966392    -0.02200
Br757      Br  0.25495187  0.25020439  0.16324508    -0.00800
Br758      Br  0.26484511  0.31858242  0.13170494    -0.00900
Br759      Br  0.22201401  0.31329652  0.28237564    -0.00800
Br760      Br  0.25497909  0.37632139  0.25493476    -0.00800
C761        C  0.20057228  0.68665884  0.36829934    -0.01900
C762        C  0.17391617  0.66694327  0.37052542     0.07800
C763        C  0.15753039  0.65958665  0.34247542    -0.02000
C764        C  0.16337960  0.67637552  0.31454631    -0.02000
C765        C  0.19057110  0.69532195  0.31163429     0.07900
C766        C  0.21035038  0.69820850  0.33858633    -0.02200
Br767      Br  0.25024693  0.71946847  0.33651278    -0.00800
Br768      Br  0.22313000  0.70031689  0.40546799    -0.00900
Br769      Br  0.13372474  0.67121438  0.28082648    -0.00800
Br770      Br  0.13015256  0.62324431  0.34034911    -0.00800
C771        C  0.25206682  0.65140716  0.19236007    -0.01900
C772        C  0.23607662  0.65418917  0.22160463     0.07800
C773        C  0.23572655  0.62752271  0.24184941    -0.02000
C774        C  0.25036424  0.59925091  0.23280313    -0.02000
C775        C  0.26453405  0.59655211  0.20299878     0.07900
C776        C  0.26499895  0.62262942  0.18268341    -0.02200
Br777      Br  0.28226612  0.61889429  0.14057937    -0.00800
Br778      Br  0.26050842  0.68692155  0.16608219    -0.00900
Br779      Br  0.25226447  0.56441555  0.26206114    -0.00800
Br780      Br  0.21426808  0.62781000  0.28167251    -0.00800
C781        C  0.09539354  0.75904820  0.26805640    -0.01900
C782        C  0.09439361  0.77078038  0.29926949     0.07800
C783        C  0.12207849  0.77050035  0.31740051    -0.02000
C784        C  0.15035470  0.75972669  0.30424778    -0.02000
C785        C  0.15103735  0.74471089  0.27426027     0.07900
C786        C  0.12295283  0.74497397  0.25611486    -0.02200
Br787      Br  0.12039302  0.72461637  0.21553174    -0.00800
Br788      Br  0.05944560  0.76367570  0.24059701    -0.00900
Br789      Br  0.18793415  0.77022635  0.32671201    -0.00800
Br790      Br  0.12148970  0.78293311  0.36136812    -0.00800
C791        C  0.11563872  0.78883748  0.68894723    -0.01900
C792        C  0.08696877  0.78202474  0.70410111     0.07800
C793        C  0.08734628  0.76098161  0.72993900    -0.02000
C794        C  0.11596196  0.74942868  0.74189328    -0.02000
C795        C  0.14418240  0.75309864  0.72464048     0.07900
C796        C  0.14325059  0.77269650  0.69751870    -0.02200
Br797      Br  0.17973378  0.78045134  0.67252420    -0.00800
Br798      Br  0.11869612  0.82266924  0.65850400    -0.00900
Br799      Br  0.11474716  0.72805004  0.78180238    -0.00800
Br800      Br  0.04888036  0.74445645  0.74755528    -0.00800
C801        C  0.15682472  0.68497626  0.68252081    -0.01900
C802        C  0.18364409  0.70443161  0.68579717     0.07800
C803        C  0.20285431  0.70850122  0.65873993    -0.02000
C804        C  0.19282566  0.69755887  0.62881172    -0.02000
C805        C  0.16704414  0.67677953  0.62635138     0.07900
C806        C  0.15099348  0.66862097  0.65425275    -0.02200
Br807      Br  0.12407291  0.63190472  0.65570607    -0.00800
Br808      Br  0.12763292  0.67850602  0.71606580    -0.00900
Br809      Br  0.21338165  0.71359630  0.59158125    -0.00800
Br810      Br  0.24265375  0.72973918  0.66117822    -0.00800
C811        C  0.32734366  0.73582492  0.71842948    -0.01900
C812        C  0.33240710  0.76576346  0.70522675     0.07800
C813        C  0.30767977  0.78759455  0.70507458    -0.02000
C814        C  0.27772135  0.77900835  0.71599738    -0.02000
C815        C  0.27240609  0.74931481  0.73046194     0.07900
C816        C  0.29802066  0.72792513  0.73167516    -0.02200
Br817      Br  0.29513850  0.68826707  0.75332658    -0.00800
Br818      Br  0.36030020  0.70473215  0.71733968    -0.00900
Br819      Br  0.24429716  0.80778099  0.70704279    -0.00800
Br820      Br  0.31499120  0.83041684  0.69149457    -0.00800
C821        C  0.64781918  0.77841028  0.71584689    -0.01900
C822        C  0.65257704  0.74783610  0.72840284     0.07800
C823        C  0.62691666  0.72634296  0.72679700    -0.02000
C824        C  0.59793235  0.73543768  0.71344220    -0.02000
C825        C  0.59286489  0.76676177  0.70412157     0.07900
C826        C  0.61781117  0.78834816  0.70625170    -0.02200
Br827      Br  0.61066161  0.83249525  0.69840554    -0.00800
Br828      Br  0.68213260  0.80657763  0.70787458    -0.00900
Br829      Br  0.56541341  0.70434856  0.70693149    -0.00800
Br830      Br  0.62871057  0.68514849  0.74534880    -0.00800
C831        C  0.77758825  0.66497549  0.84697350    -0.01900
C832        C  0.77004256  0.67923973  0.87606437     0.07800
C833        C  0.74825506  0.70433660  0.87577129    -0.02000
C834        C  0.73629761  0.71596212  0.84685320    -0.02000
C835        C  0.74044407  0.69878345  0.81841407     0.07900
C836        C  0.76044840  0.67219918  0.81947797    -0.02200
Br837      Br  0.76618398  0.64484428  0.78401862    -0.00800
Br838      Br  0.81423370  0.63849712  0.84286987    -0.00900
Br839      Br  0.71332204  0.75497362  0.84765773    -0.00800
Br840      Br  0.73178391  0.72156560  0.91450912    -0.00800
C841        C  0.71095843  0.81327756  0.78291638    -0.01900
C842        C  0.68977553  0.78763428  0.77961133     0.07800
C843        C  0.65900350  0.79160844  0.79181688    -0.02000
C844        C  0.64914748  0.82112368  0.80298882    -0.02000
C845        C  0.67131687  0.84498575  0.80902345     0.07900
C846        C  0.70270955  0.83994784  0.80048512    -0.02200
Br847      Br  0.73549738  0.86809405  0.81471689    -0.00800
Br848      Br  0.74996830  0.81566320  0.76050307    -0.00900
Br849      Br  0.60477828  0.82897374  0.80747419    -0.00800
Br850      Br  0.63041603  0.75721104  0.79781110    -0.00800
C851        C  0.83182707  0.77515132  0.74802421    -0.01900
C852        C  0.83665120  0.78617067  0.71692974     0.07800
C853        C  0.81360550  0.77955411  0.69398734    -0.02000
C854        C  0.78450918  0.76727045  0.70305236    -0.02000
C855        C  0.78048534  0.75301477  0.73304010     0.07900
C856        C  0.80548112  0.75626859  0.75515491    -0.02200
Br857      Br  0.80576673  0.73430486  0.79488962    -0.00800
Br858      Br  0.85955128  0.78764470  0.78195279    -0.00900
Br859      Br  0.74988943  0.77814528  0.67637505    -0.00800
Br860      Br  0.82174513  0.78444955  0.64936348    -0.00800
C861        C  0.67974859  0.60531079  0.76637268    -0.01900
C862        C  0.66666195  0.60222297  0.79673327     0.07800
C863        C  0.66657142  0.62822251  0.81714979    -0.02000
C864        C  0.67731628  0.65749597  0.80657535    -0.02000
C865        C  0.69314326  0.66046824  0.77731878     0.07900
C866        C  0.69401657  0.63379058  0.75712509    -0.02200
Br867      Br  0.71558408  0.63455710  0.71720419    -0.00800
Br868      Br  0.67673748  0.57104614  0.73657027    -0.00900
Br869      Br  0.66452820  0.69336016  0.83057339    -0.00800
Br870      Br  0.65324098  0.62386322  0.86059733    -0.00800
C871        C  0.68712153  0.10246681  0.76877892    -0.01900
C872        C  0.66499682  0.10122582  0.79364884     0.07800
C873        C  0.65283236  0.12990440  0.80491731    -0.02000
C874        C  0.65842918  0.15793318  0.78833627    -0.02000
C875        C  0.68283678  0.15984824  0.76586945     0.07900
C876        C  0.69877736  0.13171481  0.75823416    -0.02200
Br877      Br  0.73713008  0.13207741  0.73435486    -0.00800
Br878      Br  0.69973583  0.06519060  0.74626493    -0.00900
Br879      Br  0.63302860  0.19320509  0.79897638    -0.00800
Br880      Br  0.63295295  0.13282943  0.84587751    -0.00800
C881        C  0.66044958  0.32002290  0.81511693    -0.01900
C882        C  0.65968283  0.34605689  0.79478646     0.07800
C883        C  0.67165292  0.34321328  0.76406477    -0.02000
C884        C  0.68537524  0.31484842  0.75403412    -0.02000
C885        C  0.68532995  0.28774623  0.77388006     0.07900
C886        C  0.67163096  0.29082260  0.80438879    -0.02200
Br887      Br  0.66489000  0.25573591  0.83199493    -0.00800
Br888      Br  0.64771348  0.32471540  0.85872539    -0.00900
Br889      Br  0.70709140  0.31613004  0.71429323    -0.00800
Br890      Br  0.66840904  0.37816768  0.73499464    -0.00800
C891        C  0.61460808  0.17052870  0.68149153    -0.01900
C892        C  0.58604785  0.18222024  0.69305513     0.07800
C893        C  0.58717209  0.20623749  0.71625990    -0.02000
C894        C  0.61638711  0.21805060  0.72697662    -0.02000
C895        C  0.64450206  0.20185981  0.71990113     0.07900
C896        C  0.64285660  0.17760003  0.69706138    -0.02200
Br897      Br  0.67864771  0.15384101  0.68497138    -0.00800
Br898      Br  0.61616937  0.14818451  0.64164117    -0.00900
Br899      Br  0.61685324  0.25630115  0.75132609    -0.00800
Br900      Br  0.54951738  0.22180863  0.73585588    -0.00800
C901        C  0.33166932  0.18067018  0.72938226    -0.01900
C902        C  0.33578063  0.18048336  0.69656228     0.07800
C903        C  0.31277341  0.19330677  0.67684353    -0.02000
C904        C  0.28460382  0.20461056  0.68966704    -0.02000
C905        C  0.27873273  0.20246730  0.72269664     0.07900
C906        C  0.30356106  0.19191960  0.74249774    -0.02200
Br907      Br  0.30150712  0.19540157  0.78767328    -0.00800
Br908      Br  0.36482569  0.16520218  0.75630745    -0.00900
Br909      Br  0.25478608  0.22149578  0.66032817    -0.00800
Br910      Br  0.32036387  0.19543743  0.63185187    -0.00800
C911        C  0.27489211  0.81945227  0.80421556    -0.01900
C912        C  0.25627758  0.84668132  0.80370734     0.07800
C913        C  0.22557354  0.84485958  0.79139788    -0.02000
C914        C  0.21441850  0.81669319  0.77775933    -0.02000
C915        C  0.23302488  0.78901321  0.77832951     0.07900
C916        C  0.26259453  0.79060877  0.79374827    -0.02200
Br917      Br  0.28581422  0.75359200  0.80460775    -0.00800
Br918      Br  0.31846242  0.82152969  0.81687453    -0.00900
Br919      Br  0.17465246  0.81823430  0.75617383    -0.00800
Br920      Br  0.19800350  0.88075908  0.79402720    -0.00800
C921        C  0.24971433  0.13620679  0.74386929    -0.01900
C922        C  0.23914521  0.15881060  0.76604190     0.07800
C923        C  0.23946946  0.15023712  0.79855123    -0.02000
C924        C  0.25295238  0.12167838  0.80846048    -0.02000
C925        C  0.26708866  0.10148798  0.78644511     0.07900
C926        C  0.26473192  0.10849192  0.75402711    -0.02200
Br927      Br  0.28329998  0.08079207  0.72323344    -0.00800
Br928      Br  0.24098854  0.14079599  0.69949647    -0.00900
Br929      Br  0.25075209  0.10954868  0.85249113    -0.00800
Br930      Br  0.22335355  0.17702652  0.83111163    -0.00800
C931        C  0.16238596  0.26486941  0.31812820    -0.01900
C932        C  0.19246848  0.25084074  0.31434069     0.07800
C933        C  0.21447942  0.25462502  0.33942460    -0.02000
C934        C  0.20719779  0.27304310  0.36605510    -0.02000
C935        C  0.17672760  0.28486204  0.37021048     0.07900
C936        C  0.15404324  0.27947091  0.34668500    -0.02200
Br937      Br  0.11047978  0.28971026  0.35422176    -0.00800
Br938      Br  0.13215516  0.26797977  0.28462049    -0.00900
Br939      Br  0.23967270  0.28290709  0.39647949    -0.00800
Br940      Br  0.25382628  0.23257448  0.34031398    -0.00800
C941        C  0.17814262  0.29301869  0.64828723    -0.01900
C942        C  0.16390649  0.27291938  0.62622424     0.07800
C943        C  0.16324131  0.24041216  0.63190166    -0.02000
C944        C  0.17624461  0.22803645  0.65985844    -0.02000
C945        C  0.18814157  0.24831720  0.68377887     0.07900
C946        C  0.18984248  0.28103570  0.67695597    -0.02200
Br947      Br  0.20642991  0.31113041  0.70635957    -0.00800
Br948      Br  0.18285651  0.33721255  0.63850231    -0.00900
Br949      Br  0.18070656  0.18310931  0.66259970    -0.00800
Br950      Br  0.14366125  0.21271290  0.60151767    -0.00800
C951        C  0.13923494  0.17301156  0.72697246    -0.01900
C952        C  0.14770623  0.20535632  0.72647027     0.07800
C953        C  0.12487675  0.22716607  0.71583861    -0.02000
C954        C  0.09724335  0.21679133  0.70089233    -0.02000
C955        C  0.08985551  0.18460785  0.69992059     0.07900
C956        C  0.11026127  0.16294520  0.71432308    -0.02200
Br957      Br  0.09816632  0.11924986  0.71741863    -0.00800
Br958      Br  0.16700440  0.14112108  0.74277119    -0.00900
Br959      Br  0.07069033  0.24687685  0.67967229    -0.00800
Br960      Br  0.12897283  0.27137143  0.72424093    -0.00800
C961        C  0.77746808  0.19063921  0.68871373    -0.01900
C962        C  0.77266962  0.20119122  0.72027368     0.07800
C963        C  0.79839367  0.19852444  0.74174551    -0.02000
C964        C  0.82709584  0.18546379  0.73196915    -0.02000
C965        C  0.83198301  0.17784552  0.70010368     0.07900
C966        C  0.80730370  0.18129467  0.67839149    -0.02200
Br967      Br  0.81463543  0.17504899  0.63370021    -0.00800
Br968      Br  0.74392675  0.18519263  0.65895196    -0.00900
Br969      Br  0.85958416  0.17692944  0.76275863    -0.00800
Br970      Br  0.79753879  0.21566441  0.78380476    -0.00800
C971        C  0.33660423  0.20122455  0.27843789    -0.01900
C972        C  0.33795970  0.17627516  0.30078842     0.07800
C973        C  0.30927867  0.16426982  0.31213652    -0.02000
C974        C  0.28088904  0.17198615  0.29708045    -0.02000
C975        C  0.27920276  0.19695374  0.27502409     0.07900
C976        C  0.30732982  0.21325420  0.26819495    -0.02200
Br977      Br  0.30665632  0.25197927  0.24448146    -0.00800
Br978      Br  0.37383874  0.21852593  0.25935264    -0.00900
Br979      Br  0.24466085  0.14877038  0.30952810    -0.00800
Br980      Br  0.30734065  0.14131842  0.35162889    -0.00800
C981        C  0.64875262  0.17045828  0.30037897    -0.01900
C982        C  0.65033798  0.19951585  0.28422182     0.07800
C983        C  0.62391210  0.21970965  0.28603117    -0.02000
C984        C  0.59729959  0.21088465  0.30363371    -0.02000
C985        C  0.59443626  0.18005773  0.31572992     0.07900
C986        C  0.62031985  0.15962391  0.31315425    -0.02200
Br987      Br  0.61708537  0.11569403  0.32421656    -0.00800
Br988      Br  0.68572948  0.14656406  0.30943369    -0.00900
Br989      Br  0.56588177  0.24230139  0.31261731    -0.00800
Br990      Br  0.62152519  0.25835678  0.26224339    -0.00800
C991        C  0.82606579  0.17797325  0.27447226    -0.01900
C992        C  0.83938847  0.19614574  0.29872976     0.07800
C993        C  0.82810176  0.22674044  0.30374148    -0.02000
C994        C  0.79983755  0.23629331  0.28927213    -0.02000
C995        C  0.78246315  0.21480341  0.27028071     0.07900
C996        C  0.79984705  0.18922262  0.25781928    -0.02200
Br997      Br  0.79923601  0.17903679  0.21338520    -0.00800
Br998      Br  0.84521319  0.13885934  0.26206609    -0.00900
Br999      Br  0.78724417  0.27941236  0.29392015    -0.00800
Br1000     Br  0.85064974  0.25502092  0.33131122    -0.00800
C1001       C  0.67835676  0.34291646  0.23053927    -0.01900
C1002       C  0.66723333  0.34387790  0.19909507     0.07800
C1003       C  0.66499482  0.31559818  0.18197132    -0.02000
C1004       C  0.67254429  0.28684421  0.19640595    -0.02000
C1005       C  0.68708092  0.28590264  0.22658161     0.07900
C1006       C  0.68930671  0.31446198  0.24374822    -0.02200
Br1007     Br  0.70977114  0.31634979  0.28420810    -0.00800
Br1008     Br  0.67779921  0.38036876  0.25633591    -0.00900
Br1009     Br  0.65975592  0.24917643  0.17497332    -0.00800
Br1010     Br  0.65433038  0.31583708  0.13752433    -0.00800
C1011       C  0.77780650  0.70393463  0.18147963    -0.01900
C1012       C  0.74478624  0.70109131  0.18581781     0.07800
C1013       C  0.72653456  0.69087601  0.15953896    -0.02000
C1014       C  0.74108904  0.68029570  0.13164645    -0.02000
C1015       C  0.77377552  0.68195172  0.12847364     0.07900
C1016       C  0.79192255  0.69471233  0.15292792    -0.02200
Br1017     Br  0.83659653  0.69968192  0.14682988    -0.00800
Br1018     Br  0.80558788  0.71815569  0.21419708    -0.00900
Br1019     Br  0.71630224  0.66253025  0.09784422    -0.00800
Br1020     Br  0.68155836  0.69422367  0.15931267    -0.00800
C1021       C  0.66736384  0.64707984  0.22021594    -0.01900
C1022       C  0.69943408  0.65624952  0.22162110     0.07800
C1023       C  0.72209332  0.63446104  0.21060979    -0.02000
C1024       C  0.71290803  0.60745103  0.19374206    -0.02000
C1025       C  0.68104609  0.59929699  0.19128705     0.07900
C1026       C  0.65852261  0.61835926  0.20609458    -0.02200
Br1027     Br  0.61540073  0.60444804  0.20839244    -0.00800
Br1028     Br  0.63418852  0.67351505  0.23548116    -0.00900
Br1029     Br  0.74426379  0.58266573  0.17242504    -0.00800
Br1030     Br  0.76571251  0.63855020  0.22148216    -0.00800
C1031       C  0.81823536  0.78217431  0.29189372    -0.01900
C1032       C  0.83805077  0.76065693  0.30722578     0.07800
C1033       C  0.82957038  0.72877878  0.30830415    -0.02000
C1034       C  0.80158305  0.71840971  0.29392931    -0.02000
C1035       C  0.77970675  0.74030377  0.28131065     0.07900
C1036       C  0.78888413  0.77245004  0.28008649    -0.02200
Br1037     Br  0.76173185  0.80476488  0.26411645    -0.00800
Br1038     Br  0.83207913  0.82502391  0.28540961    -0.00900
Br1039     Br  0.79672737  0.67387550  0.28803510    -0.00800
Br1040     Br  0.85586852  0.69916797  0.33053774    -0.00800
C1041       C  0.75896428  0.28516256  0.84583845    -0.01900
C1042       C  0.76111068  0.26315558  0.87045027     0.07800
C1043       C  0.75001360  0.23240226  0.86546104    -0.02000
C1044       C  0.73535136  0.22419823  0.83667213    -0.02000
C1045       C  0.73410413  0.24590526  0.81106749     0.07900
C1046       C  0.74794770  0.27600820  0.81590006    -0.02200
Br1047     Br  0.75628018  0.30467860  0.78201267    -0.00800
Br1048     Br  0.76910871  0.32890666  0.85339628    -0.00900
Br1049     Br  0.71535827  0.18371650  0.83478608    -0.00800
Br1050     Br  0.75598656  0.20082649  0.89773853    -0.00800
C1051       C  0.74969435  0.23233781  0.13456041    -0.01900
C1052       C  0.76251183  0.26258103  0.13035190     0.07800
C1053       C  0.76173252  0.28405445  0.15560678    -0.02000
C1054       C  0.75061455  0.27459519  0.18527835    -0.02000
C1055       C  0.73477480  0.24556974  0.18901039     0.07900
C1056       C  0.73435318  0.22448680  0.16294017    -0.02200
Br1057     Br  0.71156351  0.18533448  0.16403044    -0.00800
Br1058     Br  0.75462227  0.20070492  0.10219895    -0.00900
Br1059     Br  0.76178183  0.30035787  0.22070574    -0.00800
Br1060     Br  0.77370546  0.32748638  0.14959814    -0.00800
C1061       C  0.64807933  0.12584567  0.20525948    -0.01900
C1062       C  0.67049086  0.10189477  0.20143798     0.07800
C1063       C  0.70075003  0.10631843  0.21406543    -0.02000
C1064       C  0.70792883  0.13346238  0.23169689    -0.02000
C1065       C  0.68666912  0.15900301  0.23314823     0.07900
C1066       C  0.65664012  0.15483794  0.21895636    -0.02200
Br1067     Br  0.62711160  0.18853932  0.21446979    -0.00800
Br1068     Br  0.60479639  0.11875676  0.19338543    -0.00900
Br1069     Br  0.74595581  0.13311483  0.25610848    -0.00800
Br1070     Br  0.73358846  0.07633218  0.20543525    -0.00800
C1071       C  0.68132934  0.80980416  0.25013592    -0.01900
C1072       C  0.69473562  0.78738157  0.22932704     0.07800
C1073       C  0.69802884  0.79601179  0.19703305    -0.02000
C1074       C  0.68506158  0.82425147  0.18556102    -0.02000
C1075       C  0.66891573  0.84452446  0.20595945     0.07900
C1076       C  0.66745661  0.83744016  0.23832851    -0.02200
Br1077     Br  0.64484620  0.86492606  0.26644364    -0.00800
Br1078     Br  0.68425731  0.80509942  0.29522971    -0.00900
Br1079     Br  0.68987343  0.83560572  0.14159426    -0.00800
Br1080     Br  0.71914262  0.76990039  0.16698570    -0.00800
C1081       C  0.18938202  0.71144897  0.15476395    -0.01900
C1082       C  0.18621000  0.69327392  0.18278350     0.07800
C1083       C  0.16613564  0.66671644  0.18137494    -0.02000
C1084       C  0.14824537  0.66030318  0.15407579    -0.02000
C1085       C  0.15494717  0.67559088  0.12527129     0.07900
C1086       C  0.17656997  0.70080361  0.12581198    -0.02200
Br1087     Br  0.19153555  0.71952051  0.08709288    -0.00800
Br1088     Br  0.21234823  0.75042183  0.15418420    -0.00900
Br1089     Br  0.11185557  0.63334769  0.15802732    -0.00800
Br1090     Br  0.16159825  0.63832587  0.21613590    -0.00800
C1091       C  0.14088414  0.66881107  0.84252238    -0.01900
C1092       C  0.14791402  0.68345331  0.87160932     0.07800
C1093       C  0.16929741  0.70890614  0.87143268    -0.02000
C1094       C  0.18160847  0.72014417  0.84257641    -0.02000
C1095       C  0.17888952  0.70189827  0.81453570     0.07900
C1096       C  0.15910631  0.67508592  0.81562178    -0.02200
Br1097     Br  0.15501516  0.64631748  0.78099949    -0.00800
Br1098     Br  0.10348302  0.64341027  0.83755072    -0.00900
Br1099     Br  0.20444158  0.75922959  0.84345155    -0.00800
Br1100     Br  0.18512700  0.72682402  0.91025878    -0.00800
C1101       C  0.74172040  0.69890036  0.63355858    -0.01900
C1102       C  0.76761054  0.67817616  0.63281795     0.07800
C1103       C  0.78198454  0.67018444  0.66183557    -0.02000
C1104       C  0.77326084  0.68568684  0.68986376    -0.02000
C1105       C  0.74522655  0.70353382  0.69114915     0.07900
C1106       C  0.72833080  0.70776967  0.66259932    -0.02200
Br1107     Br  0.68778558  0.72766362  0.66163587    -0.00800
Br1108     Br  0.72674193  0.71949704  0.59574981    -0.00900
Br1109     Br  0.80080894  0.68138636  0.72549982    -0.00800
Br1110     Br  0.81107785  0.63552791  0.66502633    -0.00800
C1111       C  0.73812539  0.65227854  0.35368942    -0.01900
C1112       C  0.74937460  0.67221749  0.37752058     0.07800
C1113       C  0.74993064  0.70480746  0.37256806    -0.02000
C1114       C  0.74092346  0.71736942  0.34312133    -0.02000
C1115       C  0.73258312  0.69725878  0.31759422     0.07900
C1116       C  0.72972169  0.66450004  0.32396271    -0.02200
Br1117     Br  0.71702062  0.63458199  0.29243986    -0.00800
Br1118     Br  0.73437156  0.60774020  0.36213463    -0.00900
Br1119     Br  0.73760437  0.76229501  0.33974054    -0.00800
Br1120     Br  0.76436800  0.73223860  0.40592649    -0.00800
C1121       C  0.27909749  0.81426958  0.19600634    -0.01900
C1122       C  0.25790346  0.83927617  0.19203265     0.07800
C1123       C  0.22635170  0.83480936  0.20079420    -0.02000
C1124       C  0.21709937  0.80725868  0.21668198    -0.02000
C1125       C  0.23779897  0.78117196  0.21898229     0.07900
C1126       C  0.26829302  0.78469332  0.20592086    -0.02200
Br1127     Br  0.29537689  0.74966501  0.19756966    -0.00800
Br1128     Br  0.32373446  0.82045051  0.19094359    -0.00900
Br1129     Br  0.17733082  0.80850824  0.23814582    -0.00800
Br1130     Br  0.19480708  0.86540644  0.18954619    -0.00800
C1131       C  0.26280659  0.15447418  0.20711719    -0.01900
C1132       C  0.23865250  0.15643436  0.22983030     0.07800
C1133       C  0.22280790  0.12830119  0.23782665    -0.02000
C1134       C  0.23527307  0.09901397  0.22852457    -0.02000
C1135       C  0.25799944  0.09756967  0.20417488     0.07900
C1136       C  0.26879522  0.12614720  0.19139515    -0.02200
Br1137     Br  0.28745183  0.12810651  0.14981197    -0.00800
Br1138     Br  0.28848719  0.18946531  0.19601918    -0.00900
Br1139     Br  0.22304846  0.06241499  0.25236396    -0.00800
Br1140     Br  0.18418785  0.12870329  0.26132760    -0.00800
C1141       C  0.22042754  0.25713835  0.83769888    -0.01900
C1142       C  0.19782782  0.24607629  0.81557097     0.07800
C1143       C  0.16604548  0.24439061  0.82548048    -0.02000
C1144       C  0.15704195  0.25668873  0.85495497    -0.02000
C1145       C  0.17919180  0.27166207  0.87447938     0.07900
C1146       C  0.21100920  0.27108479  0.86622687    -0.02200
Br1147     Br  0.24177574  0.29101036  0.89322202    -0.00800
Br1148     Br  0.26459464  0.25131985  0.83118798    -0.00900
Br1149     Br  0.11415486  0.25238402  0.86904421    -0.00800
Br1150     Br  0.13327226  0.22797121  0.79889788    -0.00800
C1151       C  0.15920120  0.28403995  0.15704168    -0.01900
C1152       C  0.15890479  0.26411486  0.13057718     0.07800
C1153       C  0.17011379  0.23318080  0.13353128    -0.02000
C1154       C  0.18412831  0.22302069  0.16193195    -0.02000
C1155       C  0.18605888  0.24349724  0.18841547     0.07900
C1156       C  0.17137723  0.27338626  0.18597413    -0.02200
Br1157     Br  0.16480841  0.29988178  0.22200186    -0.00800
Br1158     Br  0.14473757  0.32701172  0.15363205    -0.00900
Br1159     Br  0.20273367  0.18183954  0.16224546    -0.00800
Br1160     Br  0.16550029  0.20420344  0.09864481    -0.00800
C1161       C  0.28005811  0.32655220  0.78232336    -0.01900
C1162       C  0.25976714  0.34669386  0.79859727     0.07800
C1163       C  0.22782307  0.33932514  0.80077878    -0.02000
C1164       C  0.21600331  0.31199210  0.78643080    -0.02000
C1165       C  0.23659000  0.28972346  0.77255051     0.07900
C1166       C  0.26874850  0.29818576  0.76945448    -0.02200
Br1167     Br  0.29887757  0.27162645  0.74908854    -0.00800
Br1168     Br  0.32361136  0.33824985  0.77740493    -0.00900
Br1169     Br  0.17120041  0.30813711  0.78300685    -0.00800
Br1170     Br  0.20035612  0.36609078  0.82497687    -0.00800
C1171       C  0.25028205  0.62734412  0.81766998    -0.01900
C1172       C  0.25580746  0.60349627  0.79546821     0.07800
C1173       C  0.24646572  0.60833741  0.76388268    -0.02000
C1174       C  0.23039293  0.63600373  0.75521075    -0.02000
C1175       C  0.22799159  0.66164566  0.77666150     0.07900
C1176       C  0.24003972  0.65703809  0.80768460    -0.02200
Br1177     Br  0.24958704  0.69096376  0.83580284    -0.00800
Br1178     Br  0.25464909  0.61928356  0.86244788    -0.00900
Br1179     Br  0.21039240  0.63643074  0.71442706    -0.00800
Br1180     Br  0.25740398  0.57821213  0.73162435    -0.00800
C1181       C  0.33263532  0.73349015  0.28331301    -0.01900
C1182       C  0.33700540  0.76537477  0.29110344     0.07800
C1183       C  0.31187711  0.78626831  0.28738541    -0.02000
C1184       C  0.28191255  0.77497391  0.27966926    -0.02000
C1185       C  0.27756916  0.74365800  0.26867205     0.07900
C1186       C  0.30386360  0.72306918  0.27033427    -0.02200
Br1187     Br  0.30307923  0.68148726  0.25231197    -0.00800
Br1188     Br  0.36580254  0.70365204  0.29118439    -0.00900
Br1189     Br  0.24769568  0.80283151  0.28845716    -0.00800
Br1190     Br  0.31874850  0.83115507  0.28983125    -0.00800
C1191       C  0.61095468  0.75821060  0.30657387    -0.01900
C1192       C  0.59275860  0.77427332  0.28406234     0.07800
C1193       C  0.60126140  0.77273616  0.25202087    -0.02000
C1194       C  0.62864250  0.75673288  0.24280853    -0.02000
C1195       C  0.64944436  0.74417572  0.26573710     0.07900
C1196       C  0.63898304  0.74315023  0.29759943    -0.02200
Br1197     Br  0.66235624  0.72254228  0.33031813    -0.00800
Br1198     Br  0.59695993  0.75613623  0.34994865    -0.00900
Br1199     Br  0.63556572  0.74993921  0.19845574    -0.00800
Br1200     Br  0.57622064  0.79403396  0.22063651    -0.00800
C1201       C  0.77767865  0.28016848  0.65526815    -0.01900
C1202       C  0.75872906  0.28199014  0.62815191     0.07800
C1203       C  0.72757256  0.27114532  0.62949407    -0.02000
C1204       C  0.71610222  0.25636659  0.65697164    -0.02000
C1205       C  0.73528757  0.25362959  0.68439406     0.07900
C1206       C  0.76566420  0.26756169  0.68345843    -0.02200
Br1207     Br  0.79119906  0.27260155  0.72052259    -0.00800
Br1208     Br  0.82119331  0.29305386  0.65358831    -0.00900
Br1209     Br  0.67500507  0.23768534  0.65460144    -0.00800
Br1210     Br  0.70011271  0.27725831  0.59362283    -0.00800
C1211       C  0.77204166  0.22880757  0.36580080    -0.01900
C1212       C  0.76580076  0.25919979  0.37708416     0.07800
C1213       C  0.73929774  0.27512977  0.36566093    -0.02000
C1214       C  0.72133905  0.26199786  0.34102916    -0.02000
C1215       C  0.73366438  0.23661059  0.32321830     0.07900
C1216       C  0.75540014  0.21712159  0.33946345    -0.02200
Br1217     Br  0.76014487  0.17348866  0.32885158    -0.00800
Br1218     Br  0.80397221  0.20359594  0.38583406    -0.00900
Br1219     Br  0.67676984  0.26878298  0.34430805    -0.00800
Br1220     Br  0.72566193  0.31341216  0.38574533    -0.00800
loop_ 
_geom_bond_atom_site_label_1 
_geom_bond_atom_site_label_2 
_geom_bond_distance 
_geom_bond_site_symmetry_2 
_ccdc_geom_bond_type 
N1            N2   1.323       .  A
N1            C5   1.342       .  A
N1           Cu9   2.060       .  S
N2            C3   1.349       .  A
N2           Cu8   2.093       .  S
C3            C4   1.387       .  A
C3            H6   1.083       .  S
C4            C5   1.378       .  A
C4         C1212   1.477       .  S
C5            H7   1.084       .  S
Cu8          N11   2.094       .  S
Cu9          N19   2.060       .  S
Cu10         N12   2.084       .  S
Cu10         N18   2.083       .  S
N11          N12   1.324       .  A
N11          C15   1.349       .  A
N12          C13   1.347       .  A
C13          C14   1.384       .  A
C13          H16   1.082       .  S
C14          C15   1.386       .  A
C14         C738   1.477       .  S
C15          H17   1.082       .  S
N18          N19   1.320       .  A
N18          C22   1.347       .  A
N19          C20   1.343       .  A
C20          C21   1.382       .  A
C20          H23   1.081       .  S
C21          C22   1.389       .  A
C21        C1202   1.485       .  S
C22          H24   1.082       .  S
N25          N26   1.323       .  A
N25          C29   1.344       .  A
N25         Cu33   2.067       .  S
N26          C27   1.349       .  A
N26         Cu32   2.101       .  S
C27          C28   1.390       .  A
C27          H30   1.082       .  S
C28          C29   1.381       .  A
C28        C1192   1.486       .  S
C29          H31   1.082       .  S
Cu32         N35   2.101       .  S
Cu33         N43   2.067       .  S
Cu34         N36   2.084       .  S
Cu34         N42   2.083       .  S
N35          N36   1.324       .  A
N35          C39   1.350       .  A
N36          C37   1.348       .  A
C37          C38   1.384       .  A
C37          H40   1.082       .  S
C38          C39   1.388       .  A
C38         C723   1.480       .  S
C39          H41   1.082       .  S
N42          N43   1.321       .  A
N42          C46   1.344       .  A
N43          C44   1.346       .  A
C44          C45   1.385       .  A
C44          H47   1.081       .  S
C45          C46   1.388       .  A
C45        C1182   1.487       .  S
C46          H48   1.082       .  S
N49          N50   1.321       .  A
N49          C53   1.342       .  A
N49         Cu57   2.061       .  S
N50          C51   1.345       .  A
N50         Cu56   2.069       .  S
C51          C52   1.383       .  A
C51          H54   1.082       .  S
C52          C53   1.380       .  A
C52        C1162   1.473       .  S
C53          H55   1.082       .  S
Cu56         N59   2.070       .  S
Cu57         N67   2.061       .  S
Cu58         N60   2.091       .  S
Cu58         N66   2.090       .  S
N59          N60   1.323       .  A
N59          C63   1.344       .  A
N60          C61   1.348       .  A
C61          C62   1.386       .  A
C61          H64   1.083       .  S
C62          C63   1.381       .  A
C62         C712   1.472       .  S
C63          H65   1.081       .  S
N66          N67   1.321       .  A
N66          C70   1.346       .  A
N67          C68   1.344       .  A
C68          C69   1.383       .  A
C68          H71   1.081       .  S
C69          C70   1.390       .  A
C69        C1172   1.489       .  S
C70          H72   1.082       .  S
N73          N74   1.320       .  A
N73          C77   1.343       .  A
N73         Cu81   2.063       .  S
N74          C75   1.344       .  A
N74         Cu80   2.069       .  S
C75          C76   1.386       .  A
C75          H78   1.082       .  S
C76          C77   1.383       .  A
C76        C1152   1.482       .  S
C77          H79   1.082       .  S
Cu80         N83   2.069       .  S
Cu81         N91   2.065   1_554  S
Cu82         N84   2.077       .  S
Cu82         N90   2.076       .  S
N83          N84   1.323   1_554  A
N83          C87   1.343       .  A
N84          C85   1.347       .  A
C85          C86   1.384       .  A
C85          H88   1.082       .  S
C86          C87   1.381   1_556  A
C86         C179   1.468       .  S
C87          H89   1.082       .  S
N90          N91   1.322       .  A
N90          C94   1.344       .  A
N91          C92   1.344       .  A
C92          C93   1.381       .  A
C92          H95   1.082       .  S
C93          C94   1.384       .  A
C93        C1145   1.478       .  S
C94          H96   1.082       .  S
N97          N98   1.319       .  A
N97         C101   1.343       .  A
N97        Cu105   2.063       .  S
N98          C99   1.344       .  A
N98        Cu104   2.073       .  S
C99         C100   1.389       .  A
C99         H102   1.081       .  S
C100        C101   1.386       .  A
C100       C1122   1.489       .  S
C101        H103   1.082       .  S
Cu104       N107   2.075       .  S
Cu105       N115   2.061   1_565  S
Cu106       N108   2.089   1_545  S
Cu106       N114   2.088       .  S
N107        N108   1.323       .  A
N107        C111   1.344       .  A
N108        C109   1.349       .  A
C109        C110   1.386       .  A
C109        H112   1.082   1_565  S
C110        C111   1.382       .  A
C110        C217   1.473       .  S
C111        H113   1.082       .  S
N114        N115   1.319       .  A
N114        C118   1.343       .  A
N115        C116   1.344       .  A
C116        C117   1.389       .  A
C116        H119   1.079       .  S
C117        C118   1.394       .  A
C117       C1135   1.500       .  S
C118        H120   1.081       .  S
N121        N122   1.322       .  A
N121        C125   1.347       .  A
N121       Cu129   2.078       .  S
N122        C123   1.342       .  A
N122       Cu128   2.062       .  S
C123        C124   1.380       .  A
C123        H126   1.083       .  S
C124        C125   1.385       .  A
C124       C1112   1.477       .  S
C125        H127   1.083       .  S
Cu128       N131   2.062       .  S
Cu129       N139   2.075       .  S
Cu130       N132   2.086       .  S
Cu130       N138   2.083       .  S
N131        N132   1.322       .  A
N131        C135   1.344       .  A
N132        C133   1.347       .  A
C133        C134   1.386       .  A
C133        H136   1.082       .  S
C134        C135   1.380       .  A
C134        C739   1.469       .  S
C135        H137   1.082       .  S
N138        N139   1.320       .  A
N138        C142   1.346       .  A
N139        C140   1.342       .  A
C140        C141   1.390       .  A
C140        H143   1.080       .  S
C141        C142   1.394       .  A
C141       C1102   1.502       .  S
C142        H144   1.080       .  S
N145        N146   1.321       .  A
N145        C149   1.349       .  A
N145       Cu153   2.096   1_554  S
N146        C147   1.342       .  A
N146       Cu152   2.073       .  S
C147        C148   1.388       .  A
C147        H150   1.082       .  S
C148        C149   1.395       .  A
C148       C1085   1.504       .  S
C149        H151   1.080       .  S
Cu152       N155   2.073       .  S
Cu153       N163   2.096       .  S
Cu154       N156   2.070       .  S
Cu154       N162   2.071       .  S
N155        N156   1.319   1_554  A
N155        C159   1.346       .  A
N156        C157   1.347       .  A
C157        C158   1.385       .  A
C157        H160   1.082       .  S
C158        C159   1.385   1_556  A
C158        C181   1.473       .  S
C159        H161   1.081       .  S
N162        N163   1.321       .  A
N162        C166   1.340       .  A
N163        C164   1.349       .  A
C164        C165   1.395       .  A
C164        H167   1.081       .  S
C165        C166   1.388       .  A
C165       C1092   1.503       .  S
C166        H168   1.082       .  S
O169       Cu177   2.014       .  S
O169        C179   1.278   1_655  A
O170       Cu177   2.024       .  S
O170        C180   1.279   1_556  A
O171       Cu177   2.016       .  S
O171        C181   1.278   1_655  A
O172       Cu177   2.018       .  S
O172        C182   1.279       .  A
O173       Cu178   2.014       .  S
O173        C182   1.278   1_554  A
O174       Cu178   2.014       .  S
O174        C181   1.278   1_654  A
O175       Cu178   2.017       .  S
O175        C180   1.278       .  A
O176       Cu178   2.005       .  S
O176        C179   1.277   1_654  A
Cu177      Cu178   2.374   1_556  S
C180        C688   1.477       .  S
C182        C234   1.474       .  S
N183        N184   1.322       .  A
N183        C187   1.345       .  A
N183       Cu191   2.068       .  S
N184        C185   1.348       .  A
N184       Cu190   2.089       .  S
C185        C186   1.387       .  A
C185        H188   1.082       .  S
C186        C187   1.382       .  A
C186       C1075   1.483       .  S
C187        H189   1.082       .  S
Cu190       N193   2.090       .  S
Cu191       N201   2.068   1_565  S
Cu192       N194   2.086   1_545  S
Cu192       N200   2.085       .  S
N193        N194   1.324       .  A
N193        C197   1.348       .  A
N194        C195   1.348       .  A
C195        C196   1.385       .  A
C195        H198   1.081   1_565  S
C196        C197   1.385       .  A
C196        C219   1.477       .  S
C197        H199   1.083       .  S
N200        N201   1.321       .  A
N200        C204   1.347       .  A
N201        C202   1.343       .  A
C202        C203   1.385       .  A
C202        H205   1.082       .  S
C203        C204   1.390       .  A
C203       C1062   1.491       .  S
C204        H206   1.082       .  S
O207       Cu215   2.005       .  S
O207        C217   1.277       .  A
O208       Cu215   2.009   1_556  S
O208        C218   1.278       .  A
O209       Cu215   2.019       .  S
O209        C219   1.278       .  A
O210       Cu215   2.021   1_556  S
O210        C220   1.279       .  A
O211       Cu216   2.024   1_556  S
O211        C220   1.279   1_545  A
O212       Cu216   2.022       .  S
O212        C219   1.279   1_545  A
O213       Cu216   2.016   1_556  S
O213        C218   1.278   1_545  A
O214       Cu216   2.026       .  S
O214        C217   1.279   1_545  A
Cu215      Cu216   2.374   1_565  S
C218        C630   1.470       .  S
C220        C388   1.478       .  S
N221        N222   1.322       .  A
N221        C225   1.344       .  A
N221       Cu229   2.069       .  S
N222        C223   1.344       .  A
N222       Cu228   2.080       .  S
C223        C224   1.387       .  A
C223        H226   1.082       .  S
C224        C225   1.384       .  A
C224       C1052   1.486       .  S
C225        H227   1.082       .  S
Cu228       N231   2.081       .  S
Cu229       N239   2.069   1_554  S
Cu230       N232   2.076       .  S
Cu230       N238   2.075       .  S
N231        N232   1.322   1_554  A
N231        C235   1.347       .  A
N232        C233   1.346       .  A
C233        C234   1.384       .  A
C233        H236   1.083       .  S
C234        C235   1.386   1_556  A
C235        H237   1.081       .  S
N238        N239   1.321       .  A
N238        C242   1.343       .  A
N239        C240   1.345       .  A
C240        C241   1.385       .  A
C240        H243   1.081       .  S
C241        C242   1.386       .  A
C241       C1042   1.485       .  S
C242        H244   1.082       .  S
C245        H246   1.105       .  S
C245        C251   1.558       .  S
C245        C250   1.551       .  S
C245        C249   1.553       .  S
C247        H248   1.106       .  S
C247        C253   1.557       .  S
C247        C252   1.554       .  S
C247        C254   1.551       .  S
C249        C252   1.386       .  D
C249       C1195   1.522       .  S
C250        C253   1.386       .  D
C250       C1115   1.520       .  S
C251        C254   1.387       .  D
C251       C1022   1.520       .  S
C252       C1072   1.522       .  S
C253       C1035   1.520       .  S
C254       C1012   1.523       .  S
N255        N256   1.321       .  A
N255        C259   1.346       .  A
N255       Cu263   2.075       .  S
N256        C257   1.345       .  A
N256       Cu262   2.083       .  S
C257        C258   1.389       .  A
C257        H260   1.082       .  S
C258        C259   1.387       .  A
C258       C1002   1.493       .  S
C259        H261   1.082       .  S
Cu262       N265   2.083       .  S
Cu263       N273   2.076       .  S
Cu264       N266   2.084       .  S
Cu264       N272   2.084       .  S
N265        N266   1.323       .  A
N265        C269   1.347       .  A
N266        C267   1.347       .  A
C267        C268   1.385       .  A
C267        H270   1.083       .  S
C268        C269   1.384       .  A
C268        C711   1.475       .  S
C269        H271   1.081       .  S
N272        N273   1.323       .  A
N272        C276   1.346       .  A
N273        C274   1.346       .  A
C274        C275   1.384       .  A
C274        H277   1.081       .  S
C275        C276   1.387       .  A
C275       C1025   1.487       .  S
C276        H278   1.082       .  S
C279        H280   1.085       .  S
C279        C285   1.554       .  S
C279        C284   1.568       .  S
C279        C283   1.521       .  S
C281        H282   1.084       .  S
C281        C287   1.531       .  S
C281        C286   1.571       .  S
C281        C288   1.558       .  S
C283        C286   1.380       .  D
C283       C1055   1.514       .  S
C284        C287   1.383       .  D
C284       C1065   1.520       .  S
C285        C288   1.395       .  D
C285        C995   1.538       .  S
C286       C1005   1.520       .  S
C287        C982   1.517       .  S
C288       C1215   1.537       .  S
N289        N290   1.318       .  A
N289        C293   1.342       .  A
N289       Cu297   2.061       .  S
N290        C291   1.347       .  A
N290       Cu296   2.082       .  S
C291        C292   1.393       .  A
C291        H294   1.082       .  S
C292        C293   1.387       .  A
C292        C985   1.496       .  S
C293        H295   1.082       .  S
Cu296       N299   2.084       .  S
Cu297       N307   2.059       .  S
Cu298       N300   2.107       .  S
Cu298       N306   2.103       .  S
N299        N300   1.326       .  A
N299        C303   1.346       .  A
N300        C301   1.351       .  A
C301        C302   1.388       .  A
C301        H304   1.082       .  S
C302        C303   1.382       .  A
C302        C725   1.478       .  S
C303        H305   1.081       .  S
N306        N307   1.318       .  A
N306        C310   1.346       .  A
N307        C308   1.343       .  A
C308        C309   1.390       .  A
C308        H311   1.080       .  S
C309        C310   1.401       .  A
C309        C972   1.510       .  S
C310        H312   1.081       .  S
N313        N314   1.323       .  A
N313        C317   1.345       .  A
N313       Cu321   2.073   1_455  S
N314        C315   1.347       .  A
N314       Cu320   2.088       .  S
C315        C316   1.387       .  A
C315        H318   1.082       .  S
C316        C317   1.383       .  A
C316        C955   1.485       .  S
C317        H319   1.081       .  S
Cu320       N323   2.088   1_455  S
Cu321       N331   2.072       .  S
Cu322       N324   2.064       .  S
Cu322       N330   2.063       .  S
N323        N324   1.322       .  A
N323        C327   1.346       .  A
N324        C325   1.346       .  A
C325        C326   1.381       .  A
C325        H328   1.081       .  S
C326        C327   1.386       .  A
C326        C347   1.472       .  S
C327        H329   1.083   1_655  S
N330        N331   1.321       .  A
N330        C334   1.342       .  A
N331        C332   1.345       .  A
C332        C333   1.386       .  A
C332        H335   1.081       .  S
C333        C334   1.383       .  A
C333        C965   1.481       .  S
C334        H336   1.082       .  S
O337       Cu345   2.003   1_545  S
O337        C347   1.276       .  A
O338       Cu345   1.998       .  S
O338        C348   1.275       .  A
O339       Cu345   2.021   1_545  S
O339        C349   1.280       .  A
O340       Cu345   2.028       .  S
O340        C350   1.280       .  A
O341       Cu346   1.998       .  S
O341        C350   1.275       .  A
O342       Cu346   2.003   1_545  S
O342        C349   1.275       .  A
O343       Cu346   2.036       .  S
O343        C348   1.282       .  A
O344       Cu346   2.025   1_545  S
O344        C347   1.280       .  A
Cu345      Cu346   2.375       .  S
C348        C524   1.475       .  S
C349        C654   1.470       .  S
C350        C606   1.471       .  S
N351        N352   1.321       .  A
N351        C355   1.343       .  A
N351       Cu359   2.055       .  S
N352        C353   1.346       .  A
N352       Cu358   2.082       .  S
C353        C354   1.387       .  A
C353        H356   1.081       .  S
C354        C355   1.380       .  A
C354        C942   1.479       .  S
C355        H357   1.082       .  S
Cu358       N361   2.083       .  S
Cu359       N369   2.054       .  S
Cu360       N362   2.088       .  S
Cu360       N368   2.086       .  S
N361        N362   1.324       .  A
N361        C365   1.345       .  A
N362        C363   1.349       .  A
C363        C364   1.386       .  A
C363        H366   1.082       .  S
C364        C365   1.383       .  A
C364        C740   1.475       .  S
C365        H367   1.083       .  S
N368        N369   1.321       .  A
N368        C372   1.346       .  A
N369        C370   1.341       .  A
C370        C371   1.381       .  A
C370        H373   1.081       .  S
C371        C372   1.390       .  A
C371        C935   1.485       .  S
C372        H374   1.082       .  S
N375        N376   1.321       .  A
N375        C379   1.344       .  A
N375       Cu383   2.063       .  S
N376        C377   1.346       .  A
N376       Cu382   2.086       .  S
C377        C378   1.389       .  A
C377        H380   1.082       .  S
C378        C379   1.384       .  A
C378        C912   1.488       .  S
C379        H381   1.081       .  S
Cu382       N385   2.087       .  S
Cu383       N393   2.064   1_565  S
Cu384       N386   2.093   1_545  S
Cu384       N392   2.093       .  S
N385        N386   1.324       .  A
N385        C389   1.348       .  A
N386        C387   1.349   1_565  A
C387        C388   1.386   1_545  A
C387        H390   1.082       .  S
C388        C389   1.385       .  A
C389        H391   1.082       .  S
N392        N393   1.322       .  A
N392        C396   1.347       .  A
N393        C394   1.345       .  A
C394        C395   1.382       .  A
C394        H397   1.081       .  S
C395        C396   1.390       .  A
C395        C925   1.487       .  S
C396        H398   1.081       .  S
C399        H400   1.105       .  S
C399        C405   1.552       .  S
C399        C404   1.556       .  S
C399        C403   1.553       .  S
C401        H402   1.106       .  S
C401        C407   1.549       .  S
C401        C406   1.552       .  S
C401        C408   1.551       .  S
C403        C406   1.387       .  D
C403        C922   1.521       .  S
C404        C407   1.385       .  D
C404        C952   1.519       .  S
C405        C408   1.384       .  D
C405       C1142   1.517       .  S
C406        C905   1.517       .  S
C407        C945   1.519       .  S
C408       C1165   1.517       .  S
N409        N410   1.320       .  A
N409        C413   1.346       .  A
N409       Cu417   2.061       .  S
N410        C411   1.345       .  A
N410       Cu416   2.101       .  S
C411        C412   1.395       .  A
C411        H414   1.081       .  S
C412        C413   1.387       .  A
C412        C892   1.500       .  S
C413        H415   1.080       .  S
Cu416       N419   2.102       .  S
Cu417       N427   2.064       .  S
Cu418       N420   2.080       .  S
Cu418       N426   2.080       .  S
N419        N420   1.323       .  A
N419        C423   1.350       .  A
N420        C421   1.348       .  A
C421        C422   1.385       .  A
C421        H424   1.083       .  S
C422        C423   1.390       .  A
C422        C724   1.483       .  S
C423        H425   1.082       .  S
N426        N427   1.323       .  A
N426        C430   1.345       .  A
N427        C428   1.344       .  A
C428        C429   1.379       .  A
C428        H431   1.083       .  S
C429        C430   1.382       .  A
C429        C902   1.472       .  S
C430        H432   1.082       .  S
C433        H434   1.105       .  S
C433        C439   1.552       .  S
C433        C438   1.553       .  S
C433        C437   1.563       .  S
C435        H436   1.104       .  S
C435        C441   1.563       .  S
C435        C440   1.550       .  S
C435        C442   1.550       .  S
C437        C440   1.387       .  D
C437       C1205   1.522       .  S
C438        C441   1.389       .  D
C438        C885   1.526       .  S
C439        C442   1.379       .  D
C439        C895   1.517       .  S
C440        C962   1.526       .  S
C441       C1045   1.525       .  S
C442        C875   1.513       .  S
N443        N444   1.322       .  A
N443        C447   1.344       .  A
N443       Cu451   2.066       .  S
N444        C445   1.344       .  A
N444       Cu450   2.073       .  S
C445        C446   1.385       .  A
C445        H448   1.082       .  S
C446        C447   1.383       .  A
C446        C882   1.482       .  S
C447        H449   1.082       .  S
Cu450       N453   2.074       .  S
Cu451       N461   2.066       .  S
Cu452       N454   2.072       .  S
Cu452       N460   2.072       .  S
N453        N454   1.322       .  A
N453        C457   1.345       .  A
N454        C455   1.346       .  A
C455        C456   1.383       .  A
C455        H458   1.082       .  S
C456        C457   1.383       .  A
C456        C709   1.470       .  S
C457        H459   1.082       .  S
N460        N461   1.321       .  A
N460        C464   1.343       .  A
N461        C462   1.344       .  A
C462        C463   1.383       .  A
C462        H465   1.081       .  S
C463        C464   1.385       .  A
C463        C862   1.482       .  S
C464        H466   1.082       .  S
C467        H468   1.104       .  S
C467        C473   1.549       .  S
C467        C472   1.552       .  S
C467        C471   1.555       .  S
C469        H470   1.105       .  S
C469        C475   1.555       .  S
C469        C474   1.554       .  S
C469        C476   1.554       .  S
C471        C474   1.389       .  D
C471        C842   1.519       .  S
C472        C475   1.384       .  D
C472        C855   1.522       .  S
C473        C476   1.382       .  D
C473        C835   1.521       .  S
C474        C822   1.525       .  S
C475       C1105   1.516       .  S
C476        C865   1.513       .  S
N477        N478   1.322       .  A
N477        C481   1.348       .  A
N477       Cu485   2.086       .  S
N478        C479   1.344       .  A
N478       Cu484   2.078       .  S
C479        C480   1.385       .  A
C479        H482   1.082       .  S
C480        C481   1.389       .  A
C480        C825   1.491       .  S
C481        H483   1.081       .  S
Cu484       N487   2.078       .  S
Cu485       N495   2.086       .  S
Cu486       N488   2.084       .  S
Cu486       N494   2.083       .  S
N487        N488   1.322       .  A
N487        C491   1.346       .  A
N488        C489   1.348       .  A
C489        C490   1.387       .  A
C489        H492   1.082       .  S
C490        C491   1.384       .  A
C490        C726   1.477       .  S
C491        H493   1.082       .  S
N494        N495   1.323       .  A
N494        C498   1.345       .  A
N495        C496   1.348       .  A
C496        C497   1.388       .  A
C496        H499   1.081       .  S
C497        C498   1.387       .  A
C497        C812   1.492       .  S
C498        H500   1.082       .  S
C501        H502   1.106       .  S
C501        C507   1.554       .  S
C501        C506   1.557       .  S
C501        C505   1.557       .  S
C503        H504   1.106       .  S
C503        C509   1.551       .  S
C503        C508   1.555       .  S
C503        C510   1.560       .  S
C505        C508   1.385       .  D
C505        C795   1.523       .  S
C506        C509   1.386       .  D
C506        C915   1.519       .  S
C507        C510   1.386       .  D
C507       C1095   1.522       .  S
C508        C802   1.520       .  S
C509        C815   1.525       .  S
C510       C1175   1.524       .  S
N511        N512   1.322       .  A
N511        C515   1.345       .  A
N511       Cu519   2.075   1_455  S
N512        C513   1.349       .  A
N512       Cu518   2.103       .  S
C513        C514   1.393       .  A
C513        H516   1.081       .  S
C514        C515   1.385       .  A
C514        C782   1.497       .  S
C515        H517   1.082       .  S
Cu518       N521   2.103   1_455  S
Cu519       N529   2.075       .  S
Cu520       N522   2.066       .  S
Cu520       N528   2.067       .  S
N521        N522   1.323       .  A
N521        C525   1.348       .  A
N522        C523   1.346       .  A
C523        C524   1.380       .  A
C523        H526   1.082       .  S
C524        C525   1.389       .  A
C525        H527   1.082   1_655  S
N528        N529   1.321       .  A
N528        C532   1.343       .  A
N529        C530   1.346       .  A
C530        C531   1.386       .  A
C530        H533   1.082       .  S
C531        C532   1.383       .  A
C531       C1032   1.483       .  S
C532        H534   1.082       .  S
C535        H536   1.104       .  S
C535        C541   1.557       .  S
C535        C540   1.555       .  S
C535        C539   1.548       .  S
C537        H538   1.103       .  S
C537        C543   1.555       .  S
C537        C542   1.562       .  S
C537        C544   1.551       .  S
C539        C542   1.384       .  D
C539        C765   1.518       .  S
C540        C543   1.387       .  D
C540       C1185   1.525       .  S
C541        C544   1.386       .  D
C541        C772   1.518       .  S
C542        C785   1.526       .  S
C543       C1125   1.521       .  S
C544       C1082   1.524       .  S
N545        N546   1.322       .  A
N545        C549   1.345       .  A
N545       Cu553   2.065       .  S
N546        C547   1.344       .  A
N546       Cu552   2.079       .  S
C547        C548   1.386       .  A
C547        H550   1.082       .  S
C548        C549   1.384       .  A
C548        C752   1.485       .  S
C549        H551   1.082       .  S
Cu552       N555   2.079       .  S
Cu553       N563   2.066       .  S
Cu554       N556   2.073       .  S
Cu554       N562   2.073       .  S
N555        N556   1.322       .  A
N555        C559   1.345       .  A
N556        C557   1.347       .  A
C557        C558   1.383       .  A
C557        H560   1.082       .  S
C558        C559   1.385       .  A
C558        C710   1.472       .  S
C559        H561   1.082       .  S
N562        N563   1.322       .  A
N562        C566   1.344       .  A
N563        C564   1.344       .  A
C564        C565   1.383       .  A
C564        H567   1.082       .  S
C565        C566   1.385       .  A
C565        C775   1.482       .  S
C566        H568   1.082       .  S
N569        N570   1.321       .  A
N569        C573   1.349       .  A
N569       Cu577   2.093       .  S
N570        C571   1.340       .  A
N570       Cu576   2.067       .  S
C571        C572   1.387       .  A
C571        H574   1.081       .  S
C572        C573   1.394       .  A
C572        C805   1.499       .  S
C573        H575   1.080       .  S
Cu576       N579   2.066       .  S
Cu577       N587   2.093       .  S
Cu578       N580   2.064       .  S
Cu578       N586   2.064       .  S
N579        N580   1.318       .  A
N579        C583   1.346       .  A
N580        C581   1.345       .  A
C581        C582   1.384       .  A
C581        H584   1.081       .  S
C582        C583   1.385       .  A
C582        C737   1.470       .  S
C583        H585   1.081       .  S
N586        N587   1.320       .  A
N586        C590   1.338       .  A
N587        C588   1.349       .  A
C588        C589   1.396       .  A
C588        H591   1.080       .  S
C589        C590   1.387       .  A
C589        C762   1.501       .  S
C590        H592   1.081       .  S
N593        N594   1.318       .  A
N593        C597   1.342       .  A
N593       Cu601   2.065   1_455  S
N594        C595   1.344       .  A
N594       Cu600   2.075   1_455  S
C595        C596   1.393       .  A
C595        H598   1.081       .  S
C596        C597   1.390       .  A
C596        C792   1.500       .  S
C597        H599   1.081       .  S
Cu600       N603   2.079       .  S
Cu601       N611   2.069       .  S
Cu602       N604   2.084       .  S
Cu602       N610   2.082       .  S
N603        N604   1.324       .  A
N603        C607   1.347       .  A
N604        C605   1.345       .  A
C605        C606   1.384       .  A
C605        H608   1.082       .  S
C606        C607   1.382       .  A
C607        H609   1.082   1_655  S
N610        N611   1.320       .  A
N610        C614   1.344       .  A
N611        C612   1.345       .  A
C612        C613   1.388       .  A
C612        H615   1.081       .  S
C613        C614   1.391       .  A
C613        C852   1.496       .  S
C614        H616   1.081       .  S
N617        N618   1.319       .  A
N617        C621   1.345       .  A
N617       Cu625   2.068   1_545  S
N618        C619   1.343       .  A
N618       Cu624   2.086       .  S
C619        C620   1.393       .  A
C619        H622   1.081       .  S
C620        C621   1.391       .  A
C620        C872   1.501       .  S
C621        H623   1.080       .  S
Cu624       N627   2.087   1_545  S
Cu625       N635   2.071       .  S
Cu626       N628   2.066       .  S
Cu626       N634   2.064       .  S
N627        N628   1.323       .  A
N627        C631   1.348       .  A
N628        C629   1.343       .  A
C629        C630   1.381       .  A
C629        H632   1.084       .  S
C630        C631   1.386       .  A
C631        H633   1.081   1_565  S
N634        N635   1.320       .  A
N634        C638   1.344       .  A
N635        C636   1.343       .  A
C636        C637   1.387       .  A
C636        H639   1.082       .  S
C637        C638   1.385       .  A
C637        C845   1.486       .  S
C638        H640   1.082       .  S
N641        N642   1.320       .  A
N641        C645   1.343       .  A
N641       Cu649   2.069   1_455  S
N642        C643   1.343       .  A
N642       Cu648   2.057   1_455  S
C643        C644   1.382       .  A
C643        H646   1.082       .  S
C644        C645   1.384       .  A
C644        C742   1.478       .  S
C645        H647   1.081       .  S
Cu648       N651   2.058       .  S
Cu649       N659   2.069       .  S
Cu650       N652   2.093       .  S
Cu650       N658   2.093       .  S
N651        N652   1.323       .  A
N651        C655   1.343       .  A
N652        C653   1.348       .  A
C653        C654   1.388       .  A
C653        H656   1.082       .  S
C654        C655   1.378       .  A
C655        H657   1.082   1_655  S
N658        N659   1.324       .  A
N658        C662   1.347       .  A
N659        C660   1.345       .  A
C660        C661   1.380       .  A
C660        H663   1.082       .  S
C661        C662   1.386       .  A
C661        C992   1.478       .  S
C662        H664   1.083       .  S
C665        H666   1.104       .  S
C665        C671   1.564       .  S
C665        C670   1.553       .  S
C665        C669   1.553       .  S
C667        H668   1.104       .  S
C667        C673   1.548       .  S
C667        C672   1.558       .  S
C667        C674   1.550       .  S
C669        C672   1.385       .  D
C669        C755   1.528       .  S
C670        C673   1.378       .  D
C670        C975   1.520       .  S
C671        C674   1.390       .  D
C671        C932   1.522       .  S
C672       C1155   1.518       .  S
C673       C1132   1.511       .  S
C674        C745   1.525       .  S
N675        N676   1.324       .  A
N675        C679   1.347       .  A
N675       Cu683   2.078       .  S
N676        C677   1.346       .  A
N676       Cu682   2.080       .  S
C677        C678   1.383       .  A
C677        H680   1.082       .  S
C678        C679   1.382       .  A
C678       C1015   1.479       .  S
C679        H681   1.082       .  S
Cu682       N685   2.080       .  S
Cu683       N693   2.074   1_554  S
Cu684       N686   2.089       .  S
Cu684       N692   2.088       .  S
N685        N686   1.322   1_554  A
N685        C689   1.347       .  A
N686        C687   1.349       .  A
C687        C688   1.387   1_556  A
C687        H690   1.082       .  S
C688        C689   1.385       .  A
C689        H691   1.082       .  S
N692        N693   1.319       .  A
N692        C696   1.343       .  A
N693        C694   1.346       .  A
C694        C695   1.392       .  A
C694        H697   1.080       .  S
C695        C696   1.393       .  A
C695        C832   1.504       .  S
C696        H698   1.081       .  S
O699       Cu707   2.018       .  S
O699        C709   1.279       .  A
O700       Cu707   2.024   1_554  S
O700        C710   1.280       .  A
O701       Cu707   2.014   1_554  S
O701        C711   1.278       .  A
O702       Cu707   2.013       .  S
O702        C712   1.277       .  A
O703       Cu708   2.015       .  S
O703        C712   1.279       .  A
O704       Cu708   2.021   1_554  S
O704        C711   1.279       .  A
O705       Cu708   2.002   1_554  S
O705        C710   1.276       .  A
O706       Cu708   2.005       .  S
O706        C709   1.277       .  A
Cu707      Cu708   2.375       .  S
O713       Cu721   2.026       .  S
O713        C723   1.280       .  A
O714       Cu721   2.036       .  S
O714        C724   1.281   1_565  A
O715       Cu721   2.025       .  S
O715        C725   1.279   1_565  A
O716       Cu721   2.022       .  S
O716        C726   1.279       .  A
O717       Cu722   2.020       .  S
O717        C726   1.279       .  A
O718       Cu722   2.018   1_545  S
O718        C725   1.279       .  A
O719       Cu722   2.021       .  S
O719        C724   1.278   1_565  A
O720       Cu722   2.023       .  S
O720        C723   1.279       .  A
Cu721      Cu722   2.372       .  S
O727       Cu735   2.011       .  S
O727        C737   1.278   1_655  A
O728       Cu735   2.020       .  S
O728        C738   1.278       .  A
O729       Cu735   2.015       .  S
O729        C739   1.279       .  A
O730       Cu735   2.021       .  S
O730        C740   1.279   1_655  A
O731       Cu736   2.014       .  S
O731        C740   1.278   1_655  A
O732       Cu736   2.005       .  S
O732        C739   1.276       .  A
O733       Cu736   2.021       .  S
O733        C738   1.279       .  A
O734       Cu736   2.012       .  S
O734        C737   1.278   1_655  A
Cu735      Cu736   2.374       .  S
C741        C742   1.402       .  A
C741        C746   1.407       .  A
C741       Br748   1.938       .  S
C742        C743   1.404       .  A
C743        C744   1.409       .  A
C743       Br750   1.937       .  S
C744        C745   1.427       .  A
C744       Br749   1.920       .  S
C745        C746   1.430       .  A
C746       Br747   1.924       .  S
C751        C752   1.403       .  A
C751        C756   1.407       .  A
C751       Br758   1.939       .  S
C752        C753   1.408       .  A
C753        C754   1.413       .  A
C753       Br760   1.936       .  S
C754        C755   1.428       .  A
C754       Br759   1.927       .  S
C755        C756   1.427       .  A
C756       Br757   1.918       .  S
C761        C762   1.416       .  A
C761        C766   1.416       .  A
C761       Br768   1.932       .  S
C762        C763   1.412       .  A
C763        C764   1.406       .  A
C763       Br770   1.940       .  S
C764        C765   1.418       .  A
C764       Br769   1.918       .  S
C765        C766   1.423       .  A
C766       Br767   1.930       .  S
C771        C772   1.422       .  A
C771        C776   1.407       .  A
C771       Br778   1.913       .  S
C772        C773   1.424       .  A
C773        C774   1.411       .  A
C773       Br780   1.923       .  S
C774        C775   1.407       .  A
C774       Br779   1.935       .  S
C775        C776   1.406       .  A
C776       Br777   1.939       .  S
C781        C782   1.414       .  A
C781        C786   1.417       .  A
C781       Br788   1.933       .  S
C782        C783   1.408       .  A
C783        C784   1.409       .  A
C783       Br790   1.937       .  S
C784        C785   1.423       .  A
C784       Br789   1.915       .  S
C785        C786   1.422       .  A
C786       Br787   1.928       .  S
C791        C792   1.414       .  A
C791        C796   1.413       .  A
C791       Br798   1.939       .  S
C792        C793   1.415       .  A
C793        C794   1.411       .  A
C793       Br800   1.937       .  S
C794        C795   1.420       .  A
C794       Br799   1.922       .  S
C795        C796   1.421       .  A
C796       Br797   1.915       .  S
C801        C802   1.418       .  A
C801        C806   1.407       .  A
C801       Br808   1.913       .  S
C802        C803   1.422       .  A
C803        C804   1.415       .  A
C803       Br810   1.926       .  S
C804        C805   1.415       .  A
C804       Br809   1.932       .  S
C805        C806   1.412       .  A
C806       Br807   1.940       .  S
C811        C812   1.409       .  A
C811        C816   1.414       .  A
C811       Br818   1.935       .  S
C812        C813   1.408       .  A
C813        C814   1.409       .  A
C813       Br820   1.938       .  S
C814        C815   1.424       .  A
C814       Br819   1.920       .  S
C815        C816   1.426       .  A
C816       Br817   1.926       .  S
C821        C822   1.422       .  A
C821        C826   1.409       .  A
C821       Br828   1.923       .  S
C822        C823   1.428       .  A
C823        C824   1.414       .  A
C823       Br830   1.925       .  S
C824        C825   1.409       .  A
C824       Br829   1.936       .  S
C825        C826   1.408       .  A
C826       Br827   1.934       .  S
C831        C832   1.412       .  A
C831        C836   1.408       .  A
C831       Br838   1.939       .  S
C832        C833   1.419       .  A
C833        C834   1.416       .  A
C833       Br840   1.933       .  S
C834        C835   1.421       .  A
C834       Br839   1.932       .  S
C835        C836   1.420       .  A
C836       Br837   1.918       .  S
C841        C842   1.423       .  A
C841        C846   1.404       .  A
C841       Br848   1.923       .  S
C842        C843   1.424       .  A
C843        C844   1.409       .  A
C843       Br850   1.922       .  S
C844        C845   1.410       .  A
C844       Br849   1.934       .  S
C845        C846   1.406       .  A
C846       Br847   1.936       .  S
C851        C852   1.414       .  A
C851        C856   1.415       .  A
C851       Br858   1.933       .  S
C852        C853   1.409       .  A
C853        C854   1.402       .  A
C853       Br860   1.935       .  S
C854        C855   1.419       .  A
C854       Br859   1.916       .  S
C855        C856   1.424       .  A
C856       Br857   1.926       .  S
C861        C862   1.410       .  A
C861        C866   1.412       .  A
C861       Br868   1.933       .  S
C862        C863   1.405       .  A
C863        C864   1.402       .  A
C863       Br870   1.937       .  S
C864        C865   1.419       .  A
C864       Br869   1.916       .  S
C865        C866   1.423       .  A
C866       Br867   1.929       .  S
C871        C872   1.418       .  A
C871        C876   1.414       .  A
C871       Br878   1.930       .  S
C872        C873   1.412       .  A
C873        C874   1.406       .  A
C873       Br880   1.938       .  S
C874        C875   1.416       .  A
C874       Br879   1.910       .  S
C875        C876   1.417       .  A
C876       Br877   1.928       .  S
C881        C882   1.405       .  A
C881        C886   1.409       .  A
C881       Br888   1.938       .  S
C882        C883   1.405       .  A
C883        C884   1.410       .  A
C883       Br890   1.938       .  S
C884        C885   1.428       .  A
C884       Br889   1.926       .  S
C885        C886   1.427       .  A
C886       Br887   1.920       .  S
C891        C892   1.408       .  A
C891        C896   1.405       .  A
C891       Br898   1.939       .  S
C892        C893   1.419       .  A
C893        C894   1.417       .  A
C893       Br900   1.931       .  S
C894        C895   1.419       .  A
C894       Br899   1.928       .  S
C895        C896   1.417       .  A
C896       Br897   1.906       .  S
C901        C902   1.402       .  A
C901        C906   1.409       .  A
C901       Br908   1.932       .  S
C902        C903   1.400       .  A
C903        C904   1.407       .  A
C903       Br910   1.937       .  S
C904        C905   1.425       .  A
C904       Br909   1.918       .  S
C905        C906   1.423       .  A
C906       Br907   1.922       .  S
C911        C912   1.408       .  A
C911        C916   1.406       .  A
C911       Br918   1.936       .  S
C912        C913   1.411       .  A
C913        C914   1.413       .  A
C913       Br920   1.935       .  S
C914        C915   1.423       .  A
C914       Br919   1.927       .  S
C915        C916   1.421       .  A
C916       Br917   1.920       .  S
C921        C922   1.420       .  A
C921        C926   1.411       .  A
C921       Br928   1.925       .  S
C922        C923   1.425       .  A
C923        C924   1.410       .  A
C923       Br930   1.920       .  S
C924        C925   1.407       .  A
C924       Br929   1.938       .  S
C925        C926   1.409       .  A
C926       Br927   1.932       .  S
C931        C932   1.427       .  A
C931        C936   1.407       .  A
C931       Br938   1.920       .  S
C932        C933   1.425       .  A
C933        C934   1.410       .  A
C933       Br940   1.927       .  S
C934        C935   1.408       .  A
C934       Br939   1.936       .  S
C935        C936   1.406       .  A
C936       Br937   1.939       .  S
C941        C942   1.403       .  A
C941        C946   1.408       .  A
C941       Br948   1.938       .  S
C942        C943   1.406       .  A
C943        C944   1.409       .  A
C943       Br950   1.933       .  S
C944        C945   1.423       .  A
C944       Br949   1.927       .  S
C945        C946   1.425       .  A
C946       Br947   1.920       .  S
C951        C952   1.424       .  A
C951        C956   1.412       .  A
C951       Br958   1.924       .  S
C952        C953   1.420       .  A
C953        C954   1.408       .  A
C953       Br960   1.924       .  S
C954        C955   1.407       .  A
C954       Br959   1.933       .  S
C955        C956   1.408       .  A
C956       Br957   1.935       .  S
C961        C962   1.426       .  A
C961        C966   1.406       .  A
C961       Br968   1.919       .  S
C962        C963   1.429       .  A
C963        C964   1.410       .  A
C963       Br970   1.926       .  S
C964        C965   1.405       .  A
C964       Br969   1.936       .  S
C965        C966   1.405       .  A
C966       Br967   1.939       .  S
C971        C972   1.425       .  A
C971        C976   1.419       .  A
C971       Br978   1.931       .  S
C972        C973   1.412       .  A
C973        C974   1.408       .  A
C973       Br980   1.940       .  S
C974        C975   1.418       .  A
C974       Br979   1.910       .  S
C975        C976   1.417       .  A
C976       Br977   1.932       .  S
C981        C982   1.416       .  A
C981        C986   1.408       .  A
C981       Br988   1.918       .  S
C982        C983   1.423       .  A
C983        C984   1.412       .  A
C983       Br990   1.933       .  S
C984        C985   1.415       .  A
C984       Br989   1.935       .  S
C985        C986   1.413       .  A
C986       Br987   1.934       .  S
C991        C992   1.405       .  A
C991        C996   1.406       .  A
C991       Br998   1.931       .  S
C992        C993   1.407       .  A
C993        C994   1.413       .  A
C993      Br1000   1.931       .  S
C994        C995   1.424       .  A
C994       Br999   1.925       .  S
C995        C996   1.422       .  A
C996       Br997   1.932       .  S
C1001      C1002   1.414       .  A
C1001      C1006   1.415       .  A
C1001     Br1008   1.934       .  S
C1002      C1003   1.409       .  A
C1003      C1004   1.407       .  A
C1003     Br1010   1.936       .  S
C1004      C1005   1.420       .  A
C1004     Br1009   1.921       .  S
C1005      C1006   1.420       .  A
C1006     Br1007   1.923       .  S
C1011      C1012   1.427       .  A
C1011      C1016   1.409       .  A
C1011     Br1018   1.919       .  S
C1012      C1013   1.424       .  A
C1013      C1014   1.411       .  A
C1013     Br1020   1.926       .  S
C1014      C1015   1.404       .  A
C1014     Br1019   1.931       .  S
C1015      C1016   1.401       .  A
C1016     Br1017   1.937       .  S
C1021      C1022   1.424       .  A
C1021      C1026   1.412       .  A
C1021     Br1028   1.925       .  S
C1022      C1023   1.422       .  A
C1023      C1024   1.408       .  A
C1023     Br1030   1.925       .  S
C1024      C1025   1.407       .  A
C1024     Br1029   1.933       .  S
C1025      C1026   1.409       .  A
C1026     Br1027   1.936       .  S
C1031      C1032   1.406       .  A
C1031      C1036   1.409       .  A
C1031     Br1038   1.937       .  S
C1032      C1033   1.405       .  A
C1033      C1034   1.410       .  A
C1033     Br1040   1.934       .  S
C1034      C1035   1.424       .  A
C1034     Br1039   1.924       .  S
C1035      C1036   1.424       .  A
C1036     Br1037   1.923       .  S
C1041      C1042   1.405       .  A
C1041      C1046   1.406       .  A
C1041     Br1048   1.938       .  S
C1042      C1043   1.408       .  A
C1043      C1044   1.413       .  A
C1043     Br1050   1.935       .  S
C1044      C1045   1.427       .  A
C1044     Br1049   1.924       .  S
C1045      C1046   1.425       .  A
C1046     Br1047   1.919       .  S
C1051      C1052   1.410       .  A
C1051      C1056   1.411       .  A
C1051     Br1058   1.934       .  S
C1052      C1053   1.408       .  A
C1053      C1054   1.404       .  A
C1053     Br1060   1.935       .  S
C1054      C1055   1.417       .  A
C1054     Br1059   1.917       .  S
C1055      C1056   1.423       .  A
C1056     Br1057   1.930       .  S
C1061      C1062   1.410       .  A
C1061      C1066   1.411       .  A
C1061     Br1068   1.937       .  S
C1062      C1063   1.409       .  A
C1063      C1064   1.409       .  A
C1063     Br1070   1.934       .  S
C1064      C1065   1.420       .  A
C1064     Br1069   1.922       .  S
C1065      C1066   1.425       .  A
C1066     Br1067   1.922       .  S
C1071      C1072   1.422       .  A
C1071      C1076   1.410       .  A
C1071     Br1078   1.925       .  S
C1072      C1073   1.424       .  A
C1073      C1074   1.411       .  A
C1073     Br1080   1.919       .  S
C1074      C1075   1.405       .  A
C1074     Br1079   1.936       .  S
C1075      C1076   1.406       .  A
C1076     Br1077   1.932       .  S
C1081      C1082   1.424       .  A
C1081      C1086   1.415       .  A
C1081     Br1088   1.926       .  S
C1082      C1083   1.419       .  A
C1083      C1084   1.410       .  A
C1083     Br1090   1.916       .  S
C1084      C1085   1.413       .  A
C1084     Br1089   1.938       .  S
C1085      C1086   1.415       .  A
C1086     Br1087   1.934       .  S
C1091      C1092   1.412       .  A
C1091      C1096   1.407       .  A
C1091     Br1098   1.938       .  S
C1092      C1093   1.416       .  A
C1093      C1094   1.416       .  A
C1093     Br1100   1.933       .  S
C1094      C1095   1.424       .  A
C1094     Br1099   1.928       .  S
C1095      C1096   1.420       .  A
C1096     Br1097   1.918       .  S
C1101      C1102   1.417       .  A
C1101      C1106   1.410       .  A
C1101     Br1108   1.934       .  S
C1102      C1103   1.414       .  A
C1103      C1104   1.410       .  A
C1103     Br1110   1.936       .  S
C1104      C1105   1.421       .  A
C1104     Br1109   1.920       .  S
C1105      C1106   1.418       .  A
C1106     Br1107   1.929       .  S
C1111      C1112   1.402       .  A
C1111      C1116   1.409       .  A
C1111     Br1118   1.937       .  S
C1112      C1113   1.404       .  A
C1113      C1114   1.410       .  A
C1113     Br1120   1.932       .  S
C1114      C1115   1.423       .  A
C1114     Br1119   1.924       .  S
C1115      C1116   1.426       .  A
C1116     Br1117   1.922       .  S
C1121      C1122   1.409       .  A
C1121      C1126   1.406       .  A
C1121     Br1128   1.936       .  S
C1122      C1123   1.411       .  A
C1123      C1124   1.409       .  A
C1123     Br1130   1.935       .  S
C1124      C1125   1.424       .  A
C1124     Br1129   1.930       .  S
C1125      C1126   1.424       .  A
C1126     Br1127   1.923       .  S
C1131      C1132   1.415       .  A
C1131      C1136   1.402       .  A
C1131     Br1138   1.908       .  S
C1132      C1133   1.417       .  A
C1133      C1134   1.414       .  A
C1133     Br1140   1.929       .  S
C1134      C1135   1.420       .  A
C1134     Br1139   1.930       .  S
C1135      C1136   1.410       .  A
C1136     Br1137   1.938       .  S
C1141      C1142   1.423       .  A
C1141      C1146   1.407       .  A
C1141     Br1148   1.923       .  S
C1142      C1143   1.423       .  A
C1143      C1144   1.409       .  A
C1143     Br1150   1.924       .  S
C1144      C1145   1.406       .  A
C1144     Br1149   1.936       .  S
C1145      C1146   1.404       .  A
C1146     Br1147   1.934       .  S
C1151      C1152   1.406       .  A
C1151      C1156   1.406       .  A
C1151     Br1158   1.938       .  S
C1152      C1153   1.408       .  A
C1153      C1154   1.411       .  A
C1153     Br1160   1.935       .  S
C1154      C1155   1.423       .  A
C1154     Br1159   1.927       .  S
C1155      C1156   1.424       .  A
C1156     Br1157   1.920       .  S
C1161      C1162   1.403       .  A
C1161      C1166   1.409       .  A
C1161     Br1168   1.936       .  S
C1162      C1163   1.402       .  A
C1163      C1164   1.405       .  A
C1163     Br1170   1.934       .  S
C1164      C1165   1.423       .  A
C1164     Br1169   1.925       .  S
C1165      C1166   1.425       .  A
C1166     Br1167   1.921       .  S
C1171      C1172   1.405       .  A
C1171      C1176   1.404       .  A
C1171     Br1178   1.937       .  S
C1172      C1173   1.411       .  A
C1173      C1174   1.413       .  A
C1173     Br1180   1.933       .  S
C1174      C1175   1.425       .  A
C1174     Br1179   1.925       .  S
C1175      C1176   1.424       .  A
C1176     Br1177   1.915       .  S
C1181      C1182   1.409       .  A
C1181      C1186   1.415       .  A
C1181     Br1188   1.933       .  S
C1182      C1183   1.404       .  A
C1183      C1184   1.403       .  A
C1183     Br1190   1.936       .  S
C1184      C1185   1.424       .  A
C1184     Br1189   1.921       .  S
C1185      C1186   1.428       .  A
C1186     Br1187   1.929       .  S
C1191      C1192   1.407       .  A
C1191      C1196   1.412       .  A
C1191     Br1198   1.936       .  S
C1192      C1193   1.408       .  A
C1193      C1194   1.411       .  A
C1193     Br1200   1.931       .  S
C1194      C1195   1.420       .  A
C1194     Br1199   1.925       .  S
C1195      C1196   1.424       .  A
C1196     Br1197   1.919       .  S
C1201      C1202   1.405       .  A
C1201      C1206   1.408       .  A
C1201     Br1208   1.938       .  S
C1202      C1203   1.409       .  A
C1203      C1204   1.412       .  A
C1203     Br1210   1.935       .  S
C1204      C1205   1.424       .  A
C1204     Br1209   1.928       .  S
C1205      C1206   1.426       .  A
C1206     Br1207   1.921       .  S
C1211      C1212   1.406       .  A
C1211      C1216   1.411       .  A
C1211     Br1218   1.932       .  S
C1212      C1213   1.405       .  A
C1213      C1214   1.408       .  A
C1213     Br1220   1.931       .  S
C1214      C1215   1.421       .  A
C1214     Br1219   1.931       .  S
C1215      C1216   1.423       .  A
C1216     Br1217   1.923       .  S
