geometry optimzed in LAMMPS
_audit_creation_date              2020-12-01 
_audit_creation_method            'lammps2cif' 
_symmetry_space_group_name_H-M    'P1' 
_symmetry_Int_Tables_number       1 
_symmetry_cell_setting            triclinic 
loop_ 
_symmetry_equiv_pos_as_xyz 
  x,y,z 
_cell_length_a                    35.89740737 
_cell_length_b                    35.89928445733384 
_cell_length_c                    35.885170603590865 
_cell_angle_alpha                 90.02456605138278 
_cell_angle_beta                  90.00758729189066 
_cell_angle_gamma                 90.01397155919076 
loop_ 
_atom_site_label 
_atom_site_type_symbol 
_atom_site_fract_x 
_atom_site_fract_y 
_atom_site_fract_z 
_atom_site_charge 
C1          C  0.82267718  0.30626188  0.53411987     0.81400
N2          N  0.85061701  0.33185326  0.53441357    -0.76900
C3          C  0.86479165  0.34463389  0.50154902     0.83800
N4          N  0.85061117  0.33195907  0.46864197    -0.76900
C5          C  0.82268794  0.30637958  0.46878427     0.83900
N6          N  0.80895851  0.29377467  0.50141648    -0.78600
C7          C  0.49672515  0.80293346  0.36399557     0.81400
N8          N  0.49690021  0.83071084  0.38980144    -0.76900
C9          C  0.46402786  0.84386216  0.40365095     0.83800
N10         N  0.43119357  0.82889652  0.39163875    -0.76900
C11         C  0.43143787  0.80113993  0.36581454     0.83900
N12         N  0.46409837  0.78840825  0.35226176    -0.78600
C13         C  0.32695643  0.40829487  0.86078156     0.81400
N14         N  0.35217757  0.40783759  0.88907958    -0.76900
C15         C  0.36509045  0.44058285  0.90345424     0.83800
N16         N  0.35278007  0.47358453  0.88913297    -0.76900
C17         C  0.32755092  0.47362077  0.86082723     0.83900
N18         N  0.31490192  0.44107128  0.84691050    -0.78600
C19         C  0.09601377  0.29745085  0.03540983     0.81400
N20         N  0.10764718  0.28283046  0.00280719    -0.76900
C21         C  0.09568189  0.29690160  0.97009751     0.83800
N22         N  0.07157548  0.32614505  0.96978171    -0.76900
C23         C  0.05976453  0.34127733  0.00261994     0.83900
N24         N  0.07193552  0.32669762  0.03555377    -0.78600
C25         C  0.32325800  0.97294499  0.13780681     0.81400
N26         N  0.35115257  0.97341553  0.11217314    -0.76900
C27         C  0.36512975  0.94067516  0.09887740     0.83800
N28         N  0.35075960  0.90767881  0.11111713    -0.76900
C29         C  0.32285412  0.90765724  0.13675790     0.83900
N30         N  0.30936061  0.94018574  0.14985099    -0.78600
C31         C  0.82308693  0.57724487  0.46727241     0.81400
N32         N  0.80833218  0.58914605  0.49973409    -0.76900
C33         C  0.82129767  0.57629373  0.53258781     0.83800
N34         N  0.84955324  0.55101033  0.53318442    -0.76900
C35         C  0.86484251  0.53892509  0.50050956     0.83900
N36         N  0.85133068  0.55197602  0.46744604    -0.78600
C37         C  0.09791276  0.58047676  0.03370373     0.81400
N38         N  0.07333793  0.55160677  0.03391475    -0.76900
C39         C  0.06065347  0.53727842  0.00103034     0.83800
N40         N  0.07241373  0.55230824  0.96814960    -0.76900
C41         C  0.09699398  0.58116083  0.96835765     0.83900
N42         N  0.10948749  0.59498354  0.00102002    -0.78600
N43         N  0.96344406  0.49732706  0.99876362    -0.35500
N44         N  0.90520418  0.43991505  0.00067040    -0.56000
N45         N  0.96304701  0.38204045  0.00025734    -0.35500
N46         N  0.02132383  0.43946306  0.00231843    -0.56000
C47         C  0.93294882  0.51918628  0.00303714     0.28100
C48         C  0.99397903  0.51900624  0.00359945     0.28100
C49         C  0.93238800  0.36052147  0.00491274     0.28100
C50         C  0.99337804  0.36023663  0.00560782     0.28100
C51         C  0.88312263  0.47027015  0.99703397     0.36700
C52         C  0.88294898  0.40962100  0.99754048     0.36700
C53         C  0.04366501  0.46972143  0.99909280     0.36700
C54         C  0.04342597  0.40897043  0.99974101     0.36700
C55         C  0.94434522  0.55546178  0.01004305    -0.20700
C56         C  0.98266060  0.55535403  0.01038318    -0.20700
C57         C  0.94346068  0.32433303  0.01282050    -0.20700
C58         C  0.98176298  0.32415153  0.01325033    -0.20700
C59         C  0.84645821  0.45915349  0.99206015    -0.21800
C60         C  0.84634956  0.42084140  0.99236692    -0.21800
C61         C  0.08035147  0.45833530  0.99502576    -0.21800
C62         C  0.08019861  0.41997715  0.99542798    -0.21800
C63         C  0.89510982  0.50788379  0.99973531    -0.17100
C64         C  0.03181316  0.50748441  0.00104735    -0.17100
C65         C  0.03126886  0.37135870  0.00251630    -0.17100
C66         C  0.89469784  0.37200638  0.00095539    -0.17100
H67         H  0.92691258  0.57967152  0.01437327     0.15800
H68         H  0.00015208  0.57946635  0.01506086     0.15800
H69         H  0.92583399  0.30034107  0.01757927     0.15800
H70         H  0.99903805  0.29999858  0.01843122     0.15800
H71         H  0.82222369  0.47678959  0.98882115     0.14100
H72         H  0.82201010  0.40328035  0.98943605     0.14000
H73         H  0.10474808  0.47583162  0.99221147     0.14100
H74         H  0.10445221  0.40223499  0.99299996     0.14000
H75         H  0.96345778  0.46952544  0.99154030     0.27300
H76         H  0.96327439  0.40962683  0.99228217     0.27300
C77         C  0.60231592  0.90889638  0.13607923     0.81400
N78         N  0.61596148  0.94151688  0.14879511    -0.76900
C79         C  0.60230468  0.97420803  0.13631788     0.83800
N80         N  0.57444082  0.97446169  0.11056534    -0.76900
C81         C  0.56037054  0.94156492  0.09758807     0.83900
N82         N  0.57450239  0.90869854  0.11036363    -0.78600
N83         N  0.40443131  0.94266234  0.00131138    -0.35500
N84         N  0.46177142  0.94055261  0.94279768    -0.56000
N85         N  0.51982107  0.94276937  0.00045388    -0.35500
N86         N  0.46249499  0.94056972  0.05892037    -0.56000
C87         C  0.38242459  0.93853667  0.97092947     0.28100
C88         C  0.38281274  0.93837295  0.03195948     0.28100
C89         C  0.54119809  0.93725703  0.96980193     0.28100
C90         C  0.54160109  0.93761263  0.03087989     0.28100
C91         C  0.43126219  0.94374953  0.92081800     0.36700
C92         C  0.49195851  0.94356098  0.92035137     0.36700
C93         C  0.43229736  0.94363176  0.08135118     0.36700
C94         C  0.49297098  0.94402765  0.08090868     0.36700
C95         C  0.34607092  0.93217607  0.98250468    -0.20700
C96         C  0.34632265  0.93205493  0.02083242    -0.20700
C97         C  0.57728264  0.92901922  0.98097919    -0.20700
C98         C  0.57753647  0.92925338  0.01933674    -0.20700
C99         C  0.44218278  0.94825986  0.88402376    -0.21800
C100        C  0.48051242  0.94815114  0.88373194    -0.21800
C101        C  0.44371580  0.94844008  0.11795131    -0.21800
C102        C  0.48202330  0.94872734  0.11766857    -0.21800
C103        C  0.39367269  0.94132598  0.93303481    -0.17100
C104        C  0.39454794  0.94101082  0.06971845    -0.17100
C105        C  0.53055771  0.94145783  0.06876637    -0.17100
C106        C  0.52968958  0.94071095  0.93201267    -0.17100
H107        H  0.32172191  0.92810088  0.96518699     0.15800
H108        H  0.32221696  0.92787921  0.03845442     0.15800
H109        H  0.60113263  0.92354427  0.96336600     0.15800
H110        H  0.60161083  0.92398384  0.03670578     0.15800
H111        H  0.42440316  0.95113767  0.85983255     0.14100
H112        H  0.49794052  0.95089161  0.85927486     0.14000
H113        H  0.42628139  0.95134244  0.14238605     0.14100
H114        H  0.49977136  0.95180783  0.14185892     0.14000
H115        H  0.43240007  0.94929898  0.00111740     0.27300
H116        H  0.49232775  0.95128122  0.00061217     0.27300
C117        C  0.82724374  0.30003774  0.96928978     0.81400
N118        N  0.81553537  0.28604876  0.00213715    -0.76900
C119        C  0.82859966  0.29983410  0.03457423     0.83800
N120        N  0.85383534  0.32804780  0.03440649    -0.76900
C121        C  0.86573063  0.34248470  0.00135164     0.83900
N122        N  0.85249629  0.32827542  0.96867123    -0.78600
O123        O  0.71079764  0.67151243  0.17503512    -0.80600
C124        C  0.73851734  0.66006986  0.32522821     0.98700
O125        O  0.73547992  0.63993334  0.29674914    -0.69800
O126        O  0.71723037  0.61768072  0.22889878    -0.73400
Al127      Al  0.74895335  0.65696449  0.24916170     1.49000
C128        C  0.68217753  0.61572369  0.22478917     0.94000
O129        O  0.63989470  0.71214091  0.24604874    -0.79600
O130        O  0.69377686  0.76590438  0.25248364    -0.73100
Al131      Al  0.67907900  0.69180013  0.21429700     1.90100
O132        O  0.66644328  0.71334166  0.30122532    -0.72200
O133        O  0.76165982  0.74384414  0.27056717    -0.72100
O134        O  0.73435264  0.69510185  0.32331111    -0.77700
O135        O  0.78820151  0.68870270  0.26938188    -0.75900
O136        O  0.71402146  0.69184804  0.24920357    -1.12100
O137        O  0.76595013  0.67052391  0.20160051    -0.71200
C138        C  0.74584573  0.66736308  0.17312880     0.99500
C139        C  0.63800623  0.71663660  0.28106819     0.95900
Al140      Al  0.71406936  0.72678285  0.28413616     1.55600
O141        O  0.66206704  0.64420351  0.22781895    -0.75900
C142        C  0.79015705  0.72374720  0.27349236     1.00000
C143        C  0.68939901  0.76781126  0.21747382     0.94900
O144        O  0.69253952  0.73939138  0.19727093    -0.81200
C145        C  0.59723310  0.40851684  0.14143191     0.81400
N146        N  0.60969535  0.44115176  0.15530275    -0.76900
C147        C  0.59738807  0.47383273  0.14144073     0.83800
N148        N  0.57210699  0.47408571  0.11318114    -0.76900
C149        C  0.55939135  0.44121953  0.09886686     0.83900
N150        N  0.57197008  0.40833858  0.11317686    -0.78600
O151        O  0.66117871  0.23802458  0.22792465    -0.80600
C152        C  0.78864084  0.16024077  0.27732687     0.98700
O153        O  0.78663513  0.19523659  0.27288570    -0.69800
O154        O  0.76575814  0.21249793  0.20470631    -0.73400
Al155      Al  0.74764832  0.22648155  0.25164848     1.49000
C156        C  0.74627095  0.21475144  0.17575612     0.94000
O157        O  0.69326855  0.14263930  0.19963321    -0.79600
O158        O  0.66448447  0.17066998  0.30251255    -0.73100
Al159      Al  0.67893849  0.19042493  0.21558932     1.90100
O160        O  0.69276716  0.11707534  0.25523390    -0.72200
O161        O  0.73200167  0.18920461  0.32588273    -0.72500
O162        O  0.76027584  0.13993499  0.27434667    -0.77700
O163        O  0.73313401  0.24403302  0.29876049    -0.75900
O164        O  0.71300972  0.19130609  0.25132720    -1.12100
O165        O  0.71602033  0.26518799  0.23038293    -0.71200
C166        C  0.68106394  0.26671349  0.22542620     0.99500
C167        C  0.68933283  0.11454258  0.22012629     0.95900
Al168      Al  0.71242909  0.15693099  0.28673408     1.55600
O169        O  0.71126655  0.21030302  0.17689813    -0.75900
C170        C  0.73617569  0.22425330  0.32745526     1.00000
C171        C  0.63656736  0.16685037  0.28172064     0.94900
O172        O  0.63926240  0.17038998  0.24666965    -0.81200
C173        C  0.49608427  0.07992749  0.36395000     0.81400
N174        N  0.49637072  0.05207859  0.38962350    -0.76900
C175        C  0.46354824  0.03883595  0.40346407     0.83800
N176        N  0.43067968  0.05383222  0.39163283    -0.76900
C177        C  0.43086904  0.08167976  0.36594550     0.83900
N178        N  0.46345976  0.09448142  0.35237012    -0.78600
C179        C  0.92917068  0.07504343  0.64259371     0.81400
N180        N  0.96171436  0.08778905  0.65635192    -0.76900
C181        C  0.99443574  0.07554605  0.64257453     0.83800
N182        N  0.99484500  0.05007162  0.61450883    -0.76900
C183        C  0.96204156  0.03715383  0.60028787     0.83900
N184        N  0.92909934  0.04958103  0.61455484    -0.78600
N185        N  0.95910524  0.88272116  0.50159171    -0.35500
N186        N  0.96203821  0.94024542  0.55981793    -0.56000
N187        N  0.96034597  0.99845377  0.50233101    -0.35500
N188        N  0.96136588  0.94099881  0.44411486    -0.56000
C189        C  0.96433256  0.86092785  0.53199987     0.28100
C190        C  0.96439114  0.86133526  0.47088673     0.28100
C191        C  0.96472702  0.02004550  0.53300372     0.28100
C192        C  0.96437608  0.02044740  0.47190768     0.28100
C193        C  0.95897349  0.90984629  0.58191641     0.36700
C194        C  0.95951227  0.97043794  0.58230580     0.36700
C195        C  0.95840124  0.91084319  0.42164054     0.36700
C196        C  0.95854263  0.97145209  0.42204127     0.36700
C197        C  0.97226709  0.82491860  0.52041751    -0.20700
C198        C  0.97232648  0.82517727  0.48199715    -0.20700
C199        C  0.97110378  0.05651113  0.52187909    -0.20700
C200        C  0.97088953  0.05676173  0.48346549    -0.20700
C201        C  0.95502514  0.92084556  0.61876703    -0.21800
C202        C  0.95538347  0.95907167  0.61901243    -0.21800
C203        C  0.95412444  0.92226859  0.38496858    -0.21800
C204        C  0.95420316  0.96050014  0.38522308    -0.21800
C205        C  0.96135287  0.87224122  0.56988945    -0.17100
C206        C  0.96138547  0.87311568  0.43313703    -0.17100
C207        C  0.96136288  0.00905627  0.43404411    -0.17100
C208        C  0.96208093  0.00817943  0.57073103    -0.17100
H209        H  0.97757840  0.80088127  0.53781859     0.15800
H210        H  0.97765482  0.80135626  0.46428837     0.15800
H211        H  0.97538548  0.08055889  0.53957302     0.15800
H212        H  0.97497226  0.08103679  0.46606059     0.15800
H213        H  0.95244410  0.90319810  0.64307905     0.14100
H214        H  0.95306724  0.97647597  0.64353933     0.14000
H215        H  0.95158611  0.90490529  0.36043522     0.14100
H216        H  0.95169379  0.97818066  0.36092880     0.14000
H217        H  0.95103541  0.91029583  0.50179357     0.27300
H218        H  0.95368721  0.97055337  0.50219031     0.27300
C219        C  0.10167430  0.30480332  0.53479274     0.81400
N220        N  0.11601079  0.29256346  0.50228490    -0.76900
C221        C  0.10293977  0.30541392  0.46949716     0.83800
N222        N  0.07502130  0.33102992  0.46900020    -0.76900
C223        C  0.06014373  0.34346019  0.50172216     0.83900
N224        N  0.07372662  0.33040460  0.53475332    -0.78600
C225        C  0.31989667  0.90884276  0.86789804     0.81400
N226        N  0.34863165  0.90849422  0.89260293    -0.76900
C227        C  0.36377778  0.94131001  0.90442180     0.83800
N228        N  0.34977611  0.97421560  0.89165781    -0.76900
C229        C  0.32105827  0.97407243  0.86697915     0.83900
N230        N  0.30637007  0.94152687  0.85533123    -0.78600
O231        O  0.23393838  0.14296839  0.80342400    -0.80600
C232        C  0.18697198  0.22198158  0.67600193     0.98700
O233        O  0.19093396  0.18693303  0.67790182    -0.69800
O234        O  0.25880917  0.16859843  0.69923067    -0.73400
Al235      Al  0.21143184  0.15527677  0.71687946     1.49000
C236        C  0.28756150  0.16589790  0.71898962     0.94000
O237        O  0.26385921  0.23812305  0.77259655    -0.79600
O238        O  0.16029467  0.21138423  0.79979906    -0.73100
Al239      Al  0.24713793  0.19045848  0.78626545     1.90100
O240        O  0.20856828  0.26435286  0.77224807    -0.72200
O241        O  0.13754378  0.19344594  0.73216435    -0.72100
O242        O  0.19004210  0.24213408  0.70447664    -0.77700
O243        O  0.16402087  0.13830033  0.73100520    -0.75900
O244        O  0.21185504  0.19027872  0.75174561    -1.12100
O245        O  0.23183825  0.11622301  0.74834855    -0.71200
C246        C  0.23628336  0.11443145  0.78333129     0.99500
C247        C  0.24362862  0.26646844  0.77601701     0.95900
Al248      Al  0.17687724  0.22509217  0.75213448     1.55600
O249        O  0.28607570  0.17031633  0.75404425    -0.75900
C250        C  0.13554670  0.15841170  0.72819104     1.00000
C251        C  0.18059611  0.21424306  0.82817136     0.94900
O252        O  0.21568123  0.21048539  0.82592448    -0.81200
C253        C  0.42955669  0.08150470  0.63574380     0.81400
N254        N  0.42954384  0.05367383  0.61000115    -0.76900
C255        C  0.46250941  0.03909893  0.59791406     0.83800
N256        N  0.49526115  0.05273921  0.61153843    -0.76900
C257        C  0.49484817  0.08056604  0.63725740     0.83900
N258        N  0.46211209  0.09469844  0.64912558    -0.78600
O259        O  0.63884225  0.17009891  0.75445511    -0.80600
C260        C  0.78878541  0.15956924  0.72699263     0.98700
O261        O  0.76044146  0.13927914  0.73001839    -0.69800
O262        O  0.69277188  0.11654537  0.74790582    -0.73400
Al263      Al  0.71288550  0.15587098  0.71623929     1.49000
C264        C  0.68870770  0.11455436  0.78295465     0.94000
O265        O  0.70955528  0.21098397  0.82520007    -0.79600
O266        O  0.71523416  0.26515330  0.77095304    -0.73100
Al267      Al  0.67791736  0.19055187  0.78611539     1.90100
O268        O  0.76458539  0.21316334  0.79844594    -0.72200
O269        O  0.73344401  0.24279111  0.70320837    -0.72100
O270        O  0.78666905  0.19464149  0.73077458    -0.77700
O271        O  0.73309759  0.18751582  0.67692417    -0.75900
O272        O  0.71267642  0.19088432  0.75108689    -1.12100
O273        O  0.66523386  0.16906776  0.69916251    -0.71200
C274        C  0.63684196  0.16593155  0.71941051     0.99500
C275        C  0.74452346  0.21562654  0.82701331     0.95900
Al276      Al  0.74724996  0.22616024  0.75085387     1.55600
O277        O  0.69185831  0.14301850  0.80308970    -0.75900
C278        C  0.73694704  0.22257495  0.67485492     1.00000
C279        C  0.68020979  0.26668910  0.77531986     0.94900
O280        O  0.66041094  0.23795498  0.77274520    -0.81200
C281        C  0.59681234  0.47304505  0.86063769     0.81400
N282        N  0.60857377  0.44040705  0.84620324    -0.76900
C283        C  0.59597934  0.40774981  0.85986052     0.83800
N284        N  0.57110977  0.40751347  0.88846505    -0.76900
C285        C  0.55912132  0.44037591  0.90335402     0.83900
N286        N  0.57196259  0.47324887  0.88924413    -0.78600
O287        O  0.76423562  0.66953828  0.79935010    -0.80600
C288        C  0.63651565  0.71545030  0.71958739     0.98700
O289        O  0.63846179  0.71141496  0.75464928    -0.69800
O290        O  0.66031818  0.64348021  0.77326588    -0.73400
Al291      Al  0.67757336  0.69108662  0.78645216     1.49000
C292        C  0.68035972  0.61495428  0.77641912     0.94000
O293        O  0.73404480  0.63824112  0.70423783    -0.79600
O294        O  0.76020152  0.74226439  0.72968644    -0.73100
Al295      Al  0.74732307  0.65566296  0.75182124     1.90100
O296        O  0.73262166  0.69319386  0.67729897    -0.72200
O297        O  0.69256967  0.76480937  0.74778110    -0.72100
O298        O  0.66490410  0.71186045  0.69943143    -0.77700
O299        O  0.69141723  0.73870598  0.80316099    -0.75900
O300        O  0.71248322  0.69064816  0.75149660    -1.12100
O301        O  0.70907068  0.67089310  0.82580998    -0.71200
C302        C  0.74407076  0.66659712  0.82778832     0.99500
C303        C  0.73672659  0.65814013  0.67556097     0.95900
Al304      Al  0.71259178  0.72528501  0.71632382     1.55600
O305        O  0.71540505  0.61672467  0.77221660    -0.75900
C306        C  0.68841524  0.76701679  0.78281362     1.00000
C307        C  0.78866715  0.72208242  0.72724219     0.94900
O308        O  0.78665144  0.68709159  0.73158044    -0.81200
C309        C  0.43005614  0.80170430  0.63646044     0.81400
N310        N  0.46270481  0.78810557  0.64918169    -0.76900
C311        C  0.49540018  0.80193546  0.63682494     0.83800
N312        N  0.49566703  0.82988543  0.61122926    -0.76900
C313        C  0.46282784  0.84394349  0.59822435     0.83900
N314        N  0.42991160  0.82965519  0.61084141    -0.78600
O315        O  0.21551473  0.67117129  0.82567485    -0.80600
C316        C  0.18713600  0.65996439  0.67551597     0.98700
O317        O  0.19085567  0.63967597  0.70380049    -0.69800
O318        O  0.20943248  0.61730337  0.77165591    -0.73400
Al319      Al  0.17737045  0.65636565  0.75153436     1.49000
C320        C  0.24448476  0.61561895  0.77589266     0.94000
O321        O  0.28598124  0.71234744  0.75440651    -0.79600
O322        O  0.23160010  0.76592844  0.74866546    -0.73100
Al323      Al  0.24704207  0.69169606  0.78635706     1.90100
O324        O  0.25908387  0.71380321  0.69937358    -0.72200
O325        O  0.16397067  0.74318907  0.73107021    -0.72100
O326        O  0.19109399  0.69502918  0.67762647    -0.77700
O327        O  0.13782885  0.68783727  0.73156195    -0.75900
O328        O  0.21202517  0.69154734  0.75156860    -1.12100
O329        O  0.16035639  0.66964407  0.79912128    -0.71200
C330        C  0.18047940  0.66684050  0.82760218     0.99500
C331        C  0.28767877  0.71685493  0.71935945     0.95900
Al332      Al  0.21148716  0.72669985  0.71690043     1.55600
O333        O  0.26439905  0.64422981  0.77272387    -0.75900
C334        C  0.13565153  0.72290632  0.72786733     1.00000
C335        C  0.23572295  0.76769926  0.78371694     0.94900
O336        O  0.23322319  0.73906326  0.80363765    -0.81200
C337        C  0.99696878  0.80683742  0.36178481     0.81400
N338        N  0.96487914  0.79450306  0.34656722    -0.76900
C339        C  0.93169090  0.80671120  0.35927019     0.83800
N340        N  0.93036664  0.83174437  0.38769531    -0.76900
C341        C  0.96263609  0.84428158  0.40340318     0.83900
N342        N  0.99607089  0.83187900  0.39023566    -0.78600
O343        O  0.16599179  0.74227568  0.27318241    -0.80600
C344        C  0.24556774  0.61418727  0.22818973     0.98700
O345        O  0.21052568  0.61599451  0.23242525    -0.69800
O346        O  0.19275433  0.63876400  0.30010564    -0.73400
Al347      Al  0.17875667  0.65526397  0.25251874     1.49000
C348        C  0.18953966  0.65910294  0.32840212     0.94000
O349        O  0.26135341  0.71238450  0.30348682    -0.79600
O350        O  0.23433105  0.73742909  0.19940988    -0.73100
Al351      Al  0.21364412  0.72555070  0.28658729     1.90100
O352        O  0.28758850  0.71095934  0.24817620    -0.72200
O353        O  0.21631236  0.66921099  0.17799679    -0.72100
O354        O  0.26556505  0.64279005  0.23083284    -0.77700
O355        O  0.16129545  0.66816780  0.20485403    -0.75900
O356        O  0.21352874  0.69031755  0.25197439    -1.12100
O357        O  0.13955247  0.68705910  0.27291806    -0.71200
C358        C  0.13765000  0.72212572  0.27700762     0.99500
C359        C  0.28970199  0.71543430  0.28319716     0.95900
Al360      Al  0.24821782  0.69011163  0.21686097     1.55600
O361        O  0.19367165  0.69413247  0.32622506    -0.75900
C362        C  0.18126599  0.66484436  0.17627971     1.00000
C363        C  0.23740293  0.76610915  0.21925216     0.94900
O364        O  0.23354284  0.76450780  0.25435586    -0.81200
C365        C  0.32650746  0.40759698  0.14051132     0.81400
N366        N  0.31461513  0.44017011  0.15498650    -0.76900
C367        C  0.32762240  0.47288482  0.14186631     0.83800
N368        N  0.35304231  0.47325189  0.11375415    -0.76900
C369        C  0.36517720  0.44046086  0.09880818     0.83900
N370        N  0.35191867  0.40752439  0.11238852    -0.78600
C371        C  0.10290314  0.57576016  0.46866648     0.81400
N372        N  0.07492970  0.55022330  0.46830739    -0.76900
C373        C  0.06035516  0.53775348  0.50111651     0.83800
N374        N  0.07417029  0.55072213  0.53407717    -0.76900
C375        C  0.10216172  0.57625703  0.53399521     0.83900
N376        N  0.11627562  0.58852676  0.50139751    -0.78600
C377        C  0.99527211  0.80598766  0.64193106     0.81400
N378        N  0.96286785  0.79338358  0.65613879    -0.76900
C379        C  0.93000584  0.80527543  0.64240342     0.83800
N380        N  0.92930931  0.83028045  0.61396048    -0.76900
C381        C  0.96193809  0.84304783  0.59923365     0.83900
N382        N  0.99505027  0.83100269  0.61347895    -0.78600
C383        C  0.60145695  0.90803691  0.86461799     0.81400
N384        N  0.57335422  0.90780921  0.89005012    -0.76900
C385        C  0.55925243  0.94068801  0.90292389     0.83800
N386        N  0.57372067  0.97356581  0.89043480    -0.76900
C387        C  0.60183138  0.97334262  0.86499065     0.83900
N388        N  0.61543439  0.94068150  0.85236225    -0.78600
C389        C  0.99500923  0.07620831  0.36265410     0.81400
N390        N  0.96253399  0.08879228  0.34856570    -0.76900
C391        C  0.92972025  0.07647222  0.36209105     0.83800
N392        N  0.92913811  0.05106484  0.39016853    -0.76900
C393        C  0.96181736  0.03829986  0.40474822     0.83900
N394        N  0.99487534  0.05080335  0.39076607    -0.78600
O395        O  0.28714699  0.17057515  0.24878524    -0.80600
C396        C  0.13727740  0.15788491  0.27740047     0.98700
O397        O  0.16596168  0.13801269  0.27477073    -0.69800
O398        O  0.23391591  0.11631258  0.25648130    -0.73400
Al399      Al  0.21345247  0.15581694  0.28767003     1.49000
C400        C  0.23784960  0.11386519  0.22144131     0.94000
O401        O  0.21548456  0.20916092  0.17768597    -0.79600
O402        O  0.20883600  0.26385106  0.23073193    -0.73100
Al403      Al  0.24757359  0.18989382  0.21702376     1.90100
O404        O  0.16050584  0.21005583  0.20458236    -0.72200
O405        O  0.19111080  0.24263860  0.29906314    -0.72100
O406        O  0.13884705  0.19286194  0.27269038    -0.77700
O407        O  0.19315172  0.18793674  0.32647768    -0.75900
O408        O  0.21287988  0.19012869  0.25218065    -1.12100
O409        O  0.26096745  0.17018335  0.30414510    -0.71200
C410        C  0.28932981  0.16709217  0.28388341     0.99500
C411        C  0.18039749  0.21284158  0.17593940     0.95900
Al412      Al  0.17760935  0.22463848  0.25179652     1.55600
O413        O  0.23436066  0.14195023  0.20087495    -0.75900
C414        C  0.18864354  0.22294744  0.32789625     1.00000
C415        C  0.24383072  0.26605719  0.22628564     0.94900
O416        O  0.26424830  0.23784146  0.22964183    -0.81200
C417        C  0.82792549  0.57987132  0.96751968     0.81400
N418        N  0.81600447  0.59397093  0.00024066    -0.76900
C419        C  0.82882811  0.58038060  0.03282352     0.83800
N420        N  0.85410696  0.55215970  0.03290507    -0.76900
C421        C  0.86625696  0.53759099  0.99993732     0.83900
N422        N  0.85319754  0.55165396  0.96712688    -0.78600
N423        N  0.46231043  0.43910858  0.05870589    -0.35500
N424        N  0.40431783  0.44053047  0.00112674    -0.56000
N425        N  0.46219482  0.43835995  0.94358489    -0.35500
N426        N  0.52021483  0.44102268  0.00114284    -0.56000
C427        C  0.43178442  0.44522984  0.08010443     0.28100
C428        C  0.49279150  0.44550096  0.08010493     0.28100
C429        C  0.43169506  0.44480971  0.92223489     0.28100
C430        C  0.49266666  0.44486414  0.92223758     0.28100
C431        C  0.38227708  0.43647522  0.03148464     0.36700
C432        C  0.38222709  0.43632087  0.97081054     0.36700
C433        C  0.54233977  0.43723697  0.03148388     0.36700
C434        C  0.54227075  0.43684364  0.97080910     0.36700
C435        C  0.44309175  0.45515543  0.11573099    -0.20700
C436        C  0.48142257  0.45532878  0.11572859    -0.20700
C437        C  0.44300995  0.45501192  0.88670853    -0.20700
C438        C  0.48132379  0.45504518  0.88670915    -0.20700
C439        C  0.34581906  0.43019577  0.02034185    -0.21800
C440        C  0.34579094  0.43009777  0.98199822    -0.21800
C441        C  0.57882155  0.43119324  0.02031416    -0.21800
C442        C  0.57877561  0.43094100  0.98196302    -0.21800
C443        C  0.39404375  0.44051459  0.06905306    -0.17100
C444        C  0.53056491  0.44115292  0.06905949    -0.17100
C445        C  0.53041773  0.44038394  0.93323456    -0.17100
C446        C  0.39394987  0.44025564  0.93323927    -0.17100
H447        H  0.42560242  0.46138505  0.13948688     0.15800
H448        H  0.49888366  0.46173146  0.13946917     0.15800
H449        H  0.42552976  0.46156959  0.86303472     0.15800
H450        H  0.49879222  0.46164773  0.86303984     0.15800
H451        H  0.32163630  0.42652724  0.03797337     0.14100
H452        H  0.32159553  0.42634266  0.96439210     0.14000
H453        H  0.60304537  0.42772012  0.03793496     0.14100
H454        H  0.60295187  0.42724940  0.96432391     0.14000
H455        H  0.46233982  0.42928486  0.03165975     0.27300
H456        H  0.46223833  0.42826155  0.97054040     0.27300
N457        N  0.46492871  0.99905971  0.50075032    -0.35500
N458        N  0.46273765  0.94150004  0.55877592    -0.56000
N459        N  0.46519915  0.88388492  0.50094937    -0.35500
N460        N  0.46364912  0.94141014  0.44290186    -0.56000
C461        C  0.45860026  0.02049971  0.53120416     0.28100
C462        C  0.45896039  0.02042427  0.47017911     0.28100
C463        C  0.45878519  0.86250880  0.53143948     0.28100
C464        C  0.45923600  0.86246298  0.47038762     0.28100
C465        C  0.46678530  0.97188236  0.58079629     0.36700
C466        C  0.46682726  0.91122832  0.58092696     0.36700
C467        C  0.46800915  0.97170586  0.42084978     0.36700
C468        C  0.46819927  0.91106616  0.42093718     0.36700
C469        C  0.44902031  0.05615869  0.51978075    -0.20700
C470        C  0.44923995  0.05611139  0.48142807    -0.20700
C471        C  0.44913714  0.82685571  0.52004248    -0.20700
C472        C  0.44942085  0.82682402  0.48168248    -0.20700
C473        C  0.47295119  0.96080438  0.61729626    -0.21800
C474        C  0.47297608  0.92248313  0.61737636    -0.21800
C475        C  0.47484668  0.96050502  0.38450411    -0.21800
C476        C  0.47497215  0.92219089  0.38456028    -0.21800
C477        C  0.46284438  0.00942541  0.56899006    -0.17100
C478        C  0.46370781  0.00926361  0.43247054    -0.17100
C479        C  0.46406859  0.87351588  0.43264571    -0.17100
C480        C  0.46299980  0.87362432  0.56923949    -0.17100
H481        H  0.44277687  0.07995592  0.53721387     0.15800
H482        H  0.44322001  0.07987782  0.46389455     0.15800
H483        H  0.44279802  0.80311770  0.53750603     0.15800
H484        H  0.44336562  0.80303715  0.46416743     0.15800
H485        H  0.47661336  0.97846496  0.64147380     0.14100
H486        H  0.47667173  0.90493696  0.64161507     0.14000
H487        H  0.47886566  0.97807098  0.36033082     0.14100
H488        H  0.47909427  0.90456923  0.36043254     0.14000
H489        H  0.47460490  0.97198404  0.50085619     0.27300
H490        H  0.47495800  0.91094472  0.50099540     0.27300
N491        N  0.96255536  0.38334261  0.49965866    -0.35500
N492        N  0.90473119  0.44168565  0.50176965    -0.56000
N493        N  0.96250864  0.49908129  0.49901209    -0.35500
N494        N  0.02033886  0.44074199  0.50146527    -0.56000
C495        C  0.93190724  0.36198968  0.50499040     0.28100
C496        C  0.99296287  0.36154534  0.50486858     0.28100
C497        C  0.93209322  0.52087639  0.50427360     0.28100
C498        C  0.99317072  0.52042446  0.50439459     0.28100
C499        C  0.88255953  0.41136487  0.49828374     0.36700
C500        C  0.88253367  0.47197122  0.49796344     0.36700
C501        C  0.04255465  0.41040553  0.49819286     0.36700
C502        C  0.04254659  0.47102292  0.49794058     0.36700
C503        C  0.94301130  0.32585516  0.51309302    -0.20700
C504        C  0.98140905  0.32557886  0.51301293    -0.20700
C505        C  0.94364136  0.55682376  0.51249986    -0.20700
C506        C  0.98205185  0.55654601  0.51258521    -0.20700
C507        C  0.84596621  0.42253368  0.49284301    -0.21800
C508        C  0.84595551  0.46077124  0.49263417    -0.21800
C509        C  0.07919107  0.42154307  0.49314083    -0.21800
C510        C  0.07918915  0.45978585  0.49297001    -0.21800
C511        C  0.89422123  0.37369322  0.50149619    -0.17100
C512        C  0.03079863  0.37276910  0.50135909    -0.17100
C513        C  0.03087867  0.50871919  0.50091416    -0.17100
C514        C  0.89425308  0.50964434  0.50075268    -0.17100
H515        H  0.92531019  0.30203741  0.51842531     0.15800
H516        H  0.99880127  0.30152803  0.51828178     0.15800
H517        H  0.92622591  0.58084314  0.51785507     0.15800
H518        H  0.99975150  0.58035293  0.51799290     0.15800
H519        H  0.82166122  0.40498486  0.48959444     0.14100
H520        H  0.82166801  0.47829487  0.48918585     0.14000
H521        H  0.10351950  0.40398459  0.49019044     0.14100
H522        H  0.10354201  0.47729275  0.48987620     0.14000
H523        H  0.96259665  0.41089936  0.49139597     0.27300
H524        H  0.96244653  0.47153726  0.49064317     0.27300
C525        C  0.10380777  0.14058114  0.29055804    -0.17400
C526        C  0.07958483  0.12411386  0.30695776     0.06700
C527        C  0.05316193  0.10475408  0.32871916     0.08600
C528        C  0.02883908  0.08981790  0.34639828    -0.18200
C529        C  0.26063887  0.29956676  0.21254615    -0.17400
C530        C  0.27711401  0.32359162  0.19583835     0.06700
C531        C  0.29680200  0.34972828  0.17398427     0.08600
C532        C  0.31219218  0.37386815  0.15641965    -0.18200
C533        C  0.17601227  0.64213023  0.36188190    -0.17400
C534        C  0.15923471  0.62529834  0.38558791     0.06700
C535        C  0.13723849  0.60518858  0.41123889     0.08600
C536        C  0.11944360  0.58967798  0.43510724    -0.18200
C537        C  0.31424812  0.50640783  0.15897920    -0.17400
C538        C  0.29924420  0.53039820  0.17707543     0.06700
C539        C  0.27959903  0.55648486  0.19901872     0.08600
C540        C  0.26288656  0.58058873  0.21536503    -0.18200
C541        C  0.03120129  0.79286942  0.34668684    -0.17400
C542        C  0.05542459  0.77710051  0.32958268     0.06700
C543        C  0.08108571  0.75657166  0.30793419     0.08600
C544        C  0.10451931  0.73939912  0.29108000    -0.18200
C545        C  0.10210820  0.74004884  0.71484973    -0.17400
C546        C  0.07841079  0.75706134  0.69829443     0.06700
C547        C  0.05290726  0.77722711  0.67623957     0.08600
C548        C  0.02907289  0.79257367  0.65829714    -0.18200
C549        C  0.11801693  0.59060484  0.56773893    -0.17400
C550        C  0.13531276  0.60620947  0.59194445     0.06700
C551        C  0.15685034  0.62621265  0.61811588     0.08600
C552        C  0.17342988  0.64291024  0.64209407    -0.18200
C553        C  0.32115815  0.73019061  0.70202576    -0.17400
C554        C  0.34540884  0.74645056  0.68536224     0.06700
C555        C  0.37197369  0.76785357  0.66564379     0.08600
C556        C  0.39632465  0.78531288  0.65039027    -0.18200
C557        C  0.52904842  0.78562590  0.65093256    -0.17400
C558        C  0.55315331  0.76790504  0.66621411     0.06700
C559        C  0.57923312  0.74593550  0.68586894     0.08600
C560        C  0.60315721  0.72915610  0.70242947    -0.18200
C561        C  0.76114331  0.65321697  0.86125703    -0.17400
C562        C  0.77792158  0.63638302  0.88494228     0.06700
C563        C  0.79799012  0.61413993  0.91038304     0.08600
C564        C  0.81362886  0.59617857  0.93402774    -0.18200
C565        C  0.61795338  0.87443516  0.85072598    -0.17400
C566        C  0.63601883  0.85052273  0.83558244     0.06700
C567        C  0.65831387  0.82463141  0.81610173     0.08600
C568        C  0.67511408  0.80063550  0.79970223    -0.18200
C569        C  0.82244264  0.73917547  0.71472111    -0.17400
C570        C  0.84668631  0.75591477  0.69867409     0.06700
C571        C  0.87278126  0.77581171  0.67705700     0.08600
C572        C  0.89666814  0.79120734  0.65921055    -0.18200
C573        C  0.66308059  0.58148320  0.78961067    -0.17400
C574        C  0.64636953  0.55731569  0.80584915     0.06700
C575        C  0.62648674  0.53095569  0.82721817     0.08600
C576        C  0.61103381  0.50671213  0.84456077    -0.18200
C577        C  0.67544199  0.08100130  0.80010537    -0.17400
C578        C  0.65881067  0.05694364  0.81663756     0.06700
C579        C  0.63669107  0.03090739  0.83621175     0.08600
C580        C  0.61861568  0.00694858  0.85132840    -0.18200
C581        C  0.66261935  0.30019379  0.78799825    -0.17400
C582        C  0.64543351  0.32417519  0.80402412     0.06700
C583        C  0.62510241  0.35014825  0.82546284     0.08600
C584        C  0.60961119  0.37413637  0.84314109    -0.18200
C585        C  0.60328523  0.15263646  0.70243319    -0.17400
C586        C  0.57902794  0.13606292  0.68620347     0.06700
C587        C  0.55263782  0.11420318  0.66692883     0.08600
C588        C  0.52841579  0.09660572  0.65173814    -0.18200
C589        C  0.32101055  0.15304432  0.70133581    -0.17400
C590        C  0.34511895  0.13700689  0.68430311     0.06700
C591        C  0.37148827  0.11566889  0.66433602     0.08600
C592        C  0.39579538  0.09812376  0.64917402    -0.18200
C593        C  0.24802779  0.80137092  0.80123580    -0.17400
C594        C  0.26380237  0.82547389  0.81847516     0.06700
C595        C  0.28513839  0.85145191  0.83888051     0.08600
C596        C  0.30292311  0.87534345  0.85437945    -0.18200
C597        C  0.24891758  0.08086066  0.80049677    -0.17400
C598        C  0.26526123  0.05700340  0.81738077     0.06700
C599        C  0.28718380  0.03144005  0.83744941     0.08600
C600        C  0.30497323  0.00766292  0.85294906    -0.18200
C601        C  0.12001880  0.29182128  0.43603329    -0.17400
C602        C  0.13799574  0.27679078  0.41196600     0.06700
C603        C  0.15972091  0.25721018  0.38564900     0.08600
C604        C  0.17588879  0.24051666  0.36140743    -0.18200
C605        C  0.17402357  0.23915802  0.64244502    -0.17400
C606        C  0.15757660  0.25580194  0.61841200     0.06700
C607        C  0.13558569  0.27551994  0.59249737     0.08600
C608        C  0.11774497  0.29080809  0.56853380    -0.18200
C609        C  0.02791525  0.08962287  0.65910400    -0.17400
C610        C  0.05180762  0.10492956  0.67704026     0.06700
C611        C  0.07779513  0.12461271  0.69900869     0.08600
C612        C  0.10190530  0.14122928  0.71540498    -0.18200
C613        C  0.89551821  0.08889500  0.65883810    -0.17400
C614        C  0.87169884  0.10460833  0.67645249     0.06700
C615        C  0.84615011  0.12516577  0.69804571     0.08600
C616        C  0.82238243  0.14239193  0.71424673    -0.18200
C617        C  0.39730518  0.09876114  0.35276507    -0.17400
C618        C  0.37331789  0.11673905  0.33767758     0.06700
C619        C  0.34723698  0.13844761  0.31784918     0.08600
C620        C  0.32306597  0.15456785  0.30106720    -0.18200
C621        C  0.60296152  0.15315639  0.29815642    -0.17400
C622        C  0.57907161  0.13602477  0.31428470     0.06700
C623        C  0.55341176  0.11356270  0.33375972     0.08600
C624        C  0.52962786  0.09569425  0.34925536    -0.18200
C625        C  0.82222727  0.14326879  0.29045696    -0.17400
C626        C  0.84631050  0.12644156  0.30663299     0.06700
C627        C  0.87233664  0.10626021  0.32804117     0.08600
C628        C  0.89629365  0.09064027  0.34557642    -0.18200
C629        C  0.66370947  0.30018332  0.21235418    -0.17400
C630        C  0.64680718  0.32431878  0.19627553     0.06700
C631        C  0.62673444  0.35061920  0.17501548     0.08600
C632        C  0.61125197  0.37483506  0.15766248    -0.18200
C633        C  0.76310331  0.65400134  0.13969404    -0.17400
C634        C  0.78001248  0.63730840  0.11595965     0.06700
C635        C  0.80002252  0.61516918  0.09031547     0.08600
C636        C  0.81532058  0.59710598  0.06648553    -0.18200
C637        C  0.61169070  0.50747169  0.15762429    -0.17400
C638        C  0.62747072  0.53161762  0.17487575     0.06700
C639        C  0.64785031  0.55789659  0.19596765     0.08600
C640        C  0.66488517  0.58208352  0.21190765    -0.18200
C641        C  0.82383909  0.74098740  0.28631095    -0.17400
C642        C  0.84819718  0.75765047  0.30236923     0.06700
C643        C  0.87463232  0.77738414  0.32385569     0.08600
C644        C  0.89863083  0.79265608  0.34174599    -0.18200
C645        C  0.81289431  0.28361944  0.93584343    -0.17400
C646        C  0.79762500  0.26605661  0.91163978     0.06700
C647        C  0.77810243  0.24457812  0.88511206     0.08600
C648        C  0.76164475  0.22845308  0.86069748    -0.18200
C649        C  0.81555686  0.28332476  0.06840298    -0.17400
C650        C  0.80072340  0.26553065  0.09262552     0.06700
C651        C  0.78104166  0.24370532  0.11861640     0.08600
C652        C  0.76407997  0.22739116  0.14247339    -0.18200
C653        C  0.61871494  0.00778828  0.15061977    -0.17400
C654        C  0.63666056  0.03151424  0.16632579     0.06700
C655        C  0.65883505  0.05716957  0.18644284     0.08600
C656        C  0.67569365  0.08097177  0.20318829    -0.18200
C657        C  0.67574310  0.80121030  0.20051864    -0.17400
C658        C  0.65880765  0.82516973  0.18425680     0.06700
C659        C  0.63658748  0.85119249  0.16494692     0.08600
C660        C  0.61870200  0.87526196  0.14990190    -0.18200
C661        C  0.16390923  0.65141578  0.14282582    -0.17400
C662        C  0.14721891  0.63523333  0.11852290     0.06700
C663        C  0.12742369  0.61402242  0.09184208     0.08600
C664        C  0.11207041  0.59672555  0.06742262    -0.18200
C665        C  0.11037546  0.59801543  0.93470403    -0.17400
C666        C  0.12572016  0.61587623  0.91075842     0.06700
C667        C  0.14601297  0.63757677  0.88497283     0.08600
C668        C  0.16318663  0.65385284  0.86114975    -0.18200
C669        C  0.74907206  0.64066817  0.64178366    -0.17400
C670        C  0.76475770  0.62404518  0.61713878     0.06700
C671        C  0.78604680  0.60457519  0.59031724     0.08600
C672        C  0.80391982  0.58969384  0.56603826    -0.18200
C673        C  0.75165199  0.64291000  0.35878268    -0.17400
C674        C  0.76807412  0.62630152  0.38289929     0.06700
C675        C  0.78979173  0.60661882  0.40913577     0.08600
C676        C  0.80729406  0.59134123  0.43338925    -0.18200
C677        C  0.30626917  0.87391353  0.15019808    -0.17400
C678        C  0.28843962  0.84975421  0.16522678     0.06700
C679        C  0.26663281  0.82358466  0.18488762     0.08600
C680        C  0.25029899  0.79953495  0.20167420    -0.18200
C681        C  0.25125331  0.08024482  0.20467876    -0.17400
C682        C  0.26779372  0.05626539  0.18801471     0.06700
C683        C  0.28953219  0.03035601  0.16797616     0.08600
C684        C  0.30710701  0.00643399  0.15230795    -0.18200
C685        C  0.10949254  0.28020200  0.93651589    -0.17400
C686        C  0.12528067  0.26280547  0.91249261     0.06700
C687        C  0.14601213  0.24196350  0.88631376     0.08600
C688        C  0.16335674  0.22648478  0.86206224    -0.18200
C689        C  0.16281313  0.22530282  0.14239689    -0.17400
C690        C  0.14560312  0.24147068  0.11856730     0.06700
C691        C  0.12528408  0.26320349  0.09289940     0.08600
C692        C  0.10977526  0.28100401  0.06905413    -0.18200
C693        C  0.31268487  0.37475896  0.84439846    -0.17400
C694        C  0.29721425  0.35062538  0.82687768     0.06700
C695        C  0.27737006  0.32430931  0.80537352     0.08600
C696        C  0.26074422  0.30007946  0.78910840    -0.18200
C697        C  0.26191422  0.58220188  0.78919718    -0.17400
C698        C  0.27869435  0.55810734  0.80554266     0.06700
C699        C  0.29853899  0.53174188  0.82704131     0.08600
C700        C  0.31380743  0.50743636  0.84452107    -0.18200
C701        C  0.39781550  0.78422713  0.35233734    -0.17400
C702        C  0.37366134  0.76654568  0.33705416     0.06700
C703        C  0.34742007  0.74505375  0.31704223     0.08600
C704        C  0.32330798  0.72876645  0.30022506    -0.18200
C705        C  0.53042822  0.78729374  0.34926199    -0.17400
C706        C  0.55459173  0.76975225  0.33384851     0.06700
C707        C  0.58073138  0.74764610  0.31439442     0.08600
C708        C  0.60466608  0.73061199  0.29808570    -0.18200
C709        C  0.80635708  0.29218360  0.56772504    -0.17400
C710        C  0.78869549  0.27666768  0.59169393     0.06700
C711        C  0.76690200  0.25658927  0.61755135     0.08600
C712        C  0.75034017  0.23973519  0.64139968    -0.18200
C713        C  0.80628110  0.29263604  0.43506738    -0.17400
C714        C  0.78848630  0.27767164  0.41083182     0.06700
C715        C  0.76640812  0.25828294  0.38466901     0.08600
C716        C  0.74960902  0.24173463  0.36075128    -0.18200
loop_ 
_geom_bond_atom_site_label_1 
_geom_bond_atom_site_label_2 
_geom_bond_distance 
_geom_bond_site_symmetry_2 
_ccdc_geom_bond_type 
C1            N2   1.360       .  A
C1            N6   1.349       .  A
C1          C709   1.433       .  S
N2            C3   1.364       .  A
C3            N4   1.364       .  A
C3          C511   1.485       .  S
N4            C5   1.359       .  A
C5            N6   1.349       .  A
C5          C713   1.433       .  S
C7            N8   1.361       .  A
C7           N12   1.349       .  A
C7          C705   1.435       .  S
N8            C9   1.365       .  A
C9           N10   1.365       .  A
C9          C479   1.488       .  S
N10          C11   1.361       .  A
C11          N12   1.349       .  A
C11         C701   1.435       .  S
C13          N14   1.360       .  A
C13          N18   1.349       .  A
C13         C693   1.434       .  S
N14          C15   1.365       .  A
C15          N16   1.365       .  A
C15         C446   1.488       .  S
N16          C17   1.361       .  A
C17          N18   1.349       .  A
C17         C700   1.435       .  S
C19          N20   1.348       .  A
C19          N24   1.360       .  A
C19         C692   1.432       .  S
N20          C21   1.348   1_554  A
C21          N22   1.361       .  A
C21         C685   1.434       .  S
N22          C23   1.365   1_556  A
C23          N24   1.365       .  A
C23          C65   1.488       .  S
C25          N26   1.360       .  A
C25          N30   1.349       .  A
C25         C684   1.433   1_565  S
N26          C27   1.364       .  A
C27          N28   1.365       .  A
C27         C104   1.487       .  S
N28          C29   1.360       .  A
C29          N30   1.349       .  A
C29         C677   1.433       .  S
C31          N32   1.349       .  A
C31          N36   1.361       .  A
C31         C676   1.434       .  S
N32          C33   1.349       .  A
C33          N34   1.361       .  A
C33         C672   1.436       .  S
N34          C35   1.365       .  A
C35          N36   1.365       .  A
C35         C514   1.490       .  S
C37          N38   1.361       .  A
C37          N42   1.349       .  A
C37         C664   1.436       .  S
N38          C39   1.365       .  A
C39          N40   1.365   1_554  A
C39          C64   1.488       .  S
N40          C41   1.361       .  A
C41          N42   1.349   1_556  A
C41         C665   1.434       .  S
N43          C48   1.355   1_556  A
N43          C47   1.356   1_556  A
N43          H75   1.031       .  S
N44          C51   1.354   1_554  A
N44          C52   1.354   1_554  A
N45          C50   1.355       .  A
N45          C49   1.355       .  A
N45          H76   1.031   1_554  S
N46          C53   1.355   1_554  A
N46          C54   1.355   1_554  A
C47          C55   1.388       .  A
C47          C63   1.422   1_554  A
C48          C64   1.423   1_655  A
C48          C56   1.388       .  A
C49          C57   1.388       .  A
C49          C66   1.422       .  A
C50          C65   1.422   1_655  A
C50          C58   1.388       .  A
C51          C63   1.420       .  A
C51          C59   1.387       .  A
C52          C66   1.420   1_556  A
C52          C60   1.387       .  A
C53          C61   1.387       .  A
C53          C64   1.423   1_556  A
C54          C62   1.387       .  A
C54          C65   1.422   1_556  A
C55          C56   1.375       .  A
C55          H67   1.082       .  S
C56          H68   1.082   1_655  S
C57          C58   1.375       .  A
C57          H69   1.082       .  S
C58          H70   1.082       .  S
C59          C60   1.375       .  A
C59          H71   1.082       .  S
C60          H72   1.082       .  S
C61          C62   1.377       .  A
C61          H73   1.082       .  S
C62          H74   1.082       .  S
C63         C421   1.487       .  S
C66         C121   1.485       .  S
C77          N78   1.349       .  A
C77          N82   1.360       .  A
C77         C660   1.432       .  S
N78          C79   1.349       .  A
C79          N80   1.362       .  A
C79         C653   1.436   1_565  S
N80          C81   1.366       .  A
C81          N82   1.364       .  A
C81         C105   1.488       .  S
N83          C88   1.355       .  A
N83          C87   1.354   1_554  A
N83         H115   1.032       .  S
N84          C91   1.354       .  A
N84          C92   1.355       .  A
N85          C90   1.356       .  A
N85          C89   1.356   1_554  A
N85         H116   1.033       .  S
N86          C93   1.355       .  A
N86          C94   1.354       .  A
C87          C95   1.388       .  A
C87         C103   1.422       .  A
C88         C104   1.422       .  A
C88          C96   1.388       .  A
C89          C97   1.388       .  A
C89         C106   1.423       .  A
C90         C105   1.423       .  A
C90          C98   1.388       .  A
C91         C103   1.422       .  A
C91          C99   1.387       .  A
C92         C106   1.421       .  A
C92         C100   1.387       .  A
C93         C101   1.387       .  A
C93         C104   1.421       .  A
C94         C102   1.387       .  A
C94         C105   1.421       .  A
C95          C96   1.375   1_556  A
C95         H107   1.082       .  S
C96         H108   1.082       .  S
C97          C98   1.377   1_556  A
C97         H109   1.082       .  S
C98         H110   1.082       .  S
C99         C100   1.376       .  A
C99         H111   1.082       .  S
C100        H112   1.082       .  S
C101        C102   1.375       .  A
C101        H113   1.082       .  S
C102        H114   1.082       .  S
C103        C227   1.485       .  S
C106        C385   1.489       .  S
C117        N118   1.349   1_556  A
C117        N122   1.360       .  A
C117        C645   1.433       .  S
N118        C119   1.349       .  A
C119        N120   1.359       .  A
C119        C649   1.430       .  S
N120        C121   1.363       .  A
C121        N122   1.364   1_554  A
O123        C138   1.269       .  A
O123       Al131   1.952       .  S
C124        C673   1.433       .  S
C124        O134   1.268       .  A
C124        O125   1.256       .  A
O125       Al127   1.877       .  S
O126        C128   1.269       .  A
O126       Al127   1.953       .  S
Al127       O135   1.951       .  S
Al127       O137   1.877       .  S
Al127       O136   1.772       .  S
C128        C640   1.434       .  S
C128        O141   1.256       .  A
O129        C139   1.269       .  A
O129       Al131   1.952       .  S
O130        C143   1.268       .  A
O130       Al140   1.948       .  S
Al131       O144   1.878       .  S
Al131       O141   1.878       .  S
Al131       O136   1.773       .  S
O132        C139   1.257       .  A
O132       Al140   1.879       .  S
O133        C142   1.256       .  A
O133       Al140   1.879       .  S
O134       Al140   1.950       .  S
O135        C142   1.269       .  A
O136       Al140   1.773       .  S
O137        C138   1.256       .  A
C138        C633   1.433       .  S
C139        C708   1.434       .  S
C142        C641   1.434       .  S
C143        C657   1.431       .  S
C143        O144   1.256       .  A
C145        N146   1.349       .  A
C145        N150   1.360       .  A
C145        C632   1.434       .  S
N146        C147   1.349       .  A
C147        N148   1.361       .  A
C147        C637   1.435       .  S
N148        C149   1.365       .  A
C149        N150   1.364       .  A
C149        C444   1.488       .  S
O151        C166   1.256       .  A
O151       Al159   1.877       .  S
C152        C625   1.431       .  S
C152        O162   1.257       .  A
C152        O153   1.269       .  A
O153       Al155   1.949       .  S
O154        C156   1.255       .  A
O154       Al155   1.874       .  S
Al155       O163   1.878       .  S
Al155       O165   1.950       .  S
Al155       O164   1.772       .  S
C156        C652   1.429       .  S
C156        O169   1.267       .  A
O157        C167   1.256       .  A
O157       Al159   1.880       .  S
O158        C171   1.257       .  A
O158       Al168   1.878       .  S
Al159       O172   1.947       .  S
Al159       O169   1.945       .  S
Al159       O164   1.772       .  S
O160        C167   1.269       .  A
O160       Al168   1.955       .  S
O161        C170   1.268       .  A
O161       Al168   1.951       .  S
O162       Al168   1.876       .  S
O163        C170   1.256       .  A
O164       Al168   1.772       .  S
O165        C166   1.269       .  A
C166        C629   1.433       .  S
C167        C656   1.435       .  S
C170        C716   1.433       .  S
C171        C621   1.430       .  S
C171        O172   1.268       .  A
C173        N174   1.360       .  A
C173        N178   1.348       .  A
C173        C624   1.431       .  S
N174        C175   1.364       .  A
C175        N176   1.365       .  A
C175        C478   1.487       .  S
N176        C177   1.360       .  A
C177        N178   1.348       .  A
C177        C617   1.432       .  S
C179        N180   1.348       .  A
C179        N184   1.359       .  A
C179        C613   1.431       .  S
N180        C181   1.348       .  A
C181        N182   1.360       .  A
C181        C609   1.432   1_655  S
N182        C183   1.364       .  A
C183        N184   1.364       .  A
C183        C208   1.485       .  S
N185        C190   1.356       .  A
N185        C189   1.356       .  A
N185        H217   1.032       .  S
N186        C193   1.354       .  A
N186        C194   1.354       .  A
N187        C192   1.355   1_565  A
N187        C191   1.355   1_565  A
N187        H218   1.030       .  S
N188        C195   1.354       .  A
N188        C196   1.354       .  A
C189        C197   1.387       .  A
C189        C205   1.423       .  A
C190        C206   1.423       .  A
C190        C198   1.388       .  A
C191        C199   1.388       .  A
C191        C208   1.423       .  A
C192        C207   1.423       .  A
C192        C200   1.388       .  A
C193        C205   1.420       .  A
C193        C201   1.387       .  A
C194        C208   1.420   1_565  A
C194        C202   1.387       .  A
C195        C203   1.387       .  A
C195        C206   1.420       .  A
C196        C204   1.387       .  A
C196        C207   1.420   1_565  A
C197        C198   1.379       .  A
C197        H209   1.082       .  S
C198        H210   1.082       .  S
C199        C200   1.379       .  A
C199        H211   1.082       .  S
C200        H212   1.082       .  S
C201        C202   1.372       .  A
C201        H213   1.082       .  S
C202        H214   1.082       .  S
C203        C204   1.373       .  A
C203        H215   1.082       .  S
C204        H216   1.082       .  S
C205        C381   1.486       .  S
C206        C341   1.487       .  S
C207        C393   1.486       .  S
C219        N220   1.349       .  A
C219        N224   1.361       .  A
C219        C608   1.432       .  S
N220        C221   1.348       .  A
C221        N222   1.360       .  A
C221        C601   1.434       .  S
N222        C223   1.365       .  A
C223        N224   1.365       .  A
C223        C512   1.489       .  S
C225        N226   1.360       .  A
C225        N230   1.348       .  A
C225        C596   1.432       .  S
N226        C227   1.365       .  A
C227        N228   1.363       .  A
N228        C229   1.359       .  A
C229        N230   1.348       .  A
C229        C600   1.429   1_565  S
O231        C246   1.255       .  A
O231       Al239   1.874       .  S
C232        C605   1.431       .  S
C232        O242   1.257       .  A
C232        O233   1.268       .  A
O233       Al235   1.947       .  S
O234        C236   1.256       .  A
O234       Al235   1.877       .  S
Al235       O243   1.877       .  S
Al235       O245   1.944       .  S
Al235       O244   1.773       .  S
C236        C589   1.434       .  S
C236        O249   1.269       .  A
O237        C247   1.256       .  A
O237       Al239   1.879       .  S
O238        C251   1.256       .  A
O238       Al248   1.877       .  S
Al239       O252   1.954       .  S
Al239       O249   1.953       .  S
Al239       O244   1.772       .  S
O240        C247   1.268       .  A
O240       Al248   1.949       .  S
O241        C250   1.268       .  A
O241       Al248   1.948       .  S
O242       Al248   1.877       .  S
O243        C250   1.256       .  A
O244       Al248   1.772       .  S
O245        C246   1.267       .  A
C246        C597   1.428       .  S
C247        C696   1.433       .  S
C250        C612   1.431       .  S
C251        C688   1.434       .  S
C251        O252   1.269       .  A
C253        N254   1.360       .  A
C253        N258   1.349       .  A
C253        C592   1.434       .  S
N254        C255   1.365       .  A
C255        N256   1.364       .  A
C255        C477   1.487       .  S
N256        C257   1.360       .  A
C257        N258   1.349       .  A
C257        C588   1.433       .  S
O259        C274   1.268       .  A
O259       Al267   1.948       .  S
C260        C616   1.430       .  S
C260        O270   1.269       .  A
C260        O261   1.256       .  A
O261       Al263   1.875       .  S
O262        C264   1.268       .  A
O262       Al263   1.951       .  S
Al263       O271   1.952       .  S
Al263       O273   1.878       .  S
Al263       O272   1.773       .  S
C264        C577   1.434       .  S
C264        O277   1.256       .  A
O265        C275   1.268       .  A
O265       Al267   1.948       .  S
O266        C279   1.268       .  A
O266       Al276   1.950       .  S
Al267       O280   1.877       .  S
Al267       O277   1.880       .  S
Al267       O272   1.771       .  S
O268        C275   1.256       .  A
O268       Al276   1.877       .  S
O269        C278   1.256       .  A
O269       Al276   1.878       .  S
O270       Al276   1.950       .  S
O271        C278   1.268       .  A
O272       Al276   1.773       .  S
O273        C274   1.257       .  A
C274        C585   1.432       .  S
C275        C648   1.432       .  S
C278        C712   1.433       .  S
C279        C581   1.433       .  S
C279        O280   1.256       .  A
C281        N282   1.349       .  A
C281        N286   1.360       .  A
C281        C576   1.433       .  S
N282        C283   1.349       .  A
C283        N284   1.361       .  A
C283        C584   1.434       .  S
N284        C285   1.365       .  A
C285        N286   1.364       .  A
C285        C445   1.487       .  S
O287        C302   1.256       .  A
O287       Al295   1.877       .  S
C288        C560   1.434       .  S
C288        O298   1.256       .  A
C288        O289   1.268       .  A
O289       Al291   1.951       .  S
O290        C292   1.257       .  A
O290       Al291   1.878       .  S
Al291       O299   1.878       .  S
Al291       O301   1.949       .  S
Al291       O300   1.773       .  S
C292        C573   1.433       .  S
C292        O305   1.269       .  A
O293        C303   1.257       .  A
O293       Al295   1.880       .  S
O294        C307   1.256       .  A
O294       Al304   1.877       .  S
Al295       O308   1.948       .  S
Al295       O305   1.950       .  S
Al295       O300   1.773       .  S
O296        C303   1.269       .  A
O296       Al304   1.951       .  S
O297        C306   1.268       .  A
O297       Al304   1.950       .  S
O298       Al304   1.879       .  S
O299        C306   1.256       .  A
O300       Al304   1.772       .  S
O301        C302   1.268       .  A
C302        C561   1.432       .  S
C303        C669   1.435       .  S
C306        C568   1.432       .  S
C307        C569   1.431       .  S
C307        O308   1.268       .  A
C309        N310   1.349       .  A
C309        N314   1.361       .  A
C309        C556   1.436       .  S
N310        C311   1.349       .  A
C311        N312   1.361       .  A
C311        C557   1.435       .  S
N312        C313   1.365       .  A
C313        N314   1.365       .  A
C313        C480   1.489       .  S
O315        C330   1.269       .  A
O315       Al323   1.953       .  S
C316        C552   1.433       .  S
C316        O326   1.269       .  A
C316        O317   1.257       .  A
O317       Al319   1.878       .  S
O318        C320   1.269       .  A
O318       Al319   1.953       .  S
Al319       O327   1.951       .  S
Al319       O329   1.875       .  S
Al319       O328   1.773       .  S
C320        C697   1.435       .  S
C320        O333   1.256       .  A
O321        C331   1.270       .  A
O321       Al323   1.954       .  S
O322        C335   1.268       .  A
O322       Al332   1.950       .  S
Al323       O336   1.877       .  S
Al323       O333   1.879       .  S
Al323       O328   1.771       .  S
O324        C331   1.257       .  A
O324       Al332   1.879       .  S
O325        C334   1.256       .  A
O325       Al332   1.876       .  S
O326       Al332   1.953       .  S
O327        C334   1.268       .  A
O328       Al332   1.773       .  S
O329        C330   1.256       .  A
C330        C668   1.433       .  S
C331        C553   1.435       .  S
C334        C545   1.431       .  S
C335        C593   1.432       .  S
C335        O336   1.256       .  A
C337        N338   1.349       .  A
C337        N342   1.360       .  A
C337        C541   1.434   1_655  S
N338        C339   1.349       .  A
C339        N340   1.360       .  A
C339        C644   1.434       .  S
N340        C341   1.364       .  A
C341        N342   1.365       .  A
O343        C358   1.256       .  A
O343       Al351   1.876       .  S
C344        C540   1.433       .  S
C344        O354   1.256       .  A
C344        O345   1.269       .  A
O345       Al347   1.951       .  S
O346        C348   1.256       .  A
O346       Al347   1.876       .  S
Al347       O355   1.880       .  S
Al347       O357   1.954       .  S
Al347       O356   1.772       .  S
C348        C533   1.432       .  S
C348        O361   1.269       .  A
O349        C359   1.256       .  A
O349       Al351   1.877       .  S
O350        C363   1.256       .  A
O350       Al360   1.878       .  S
Al351       O364   1.951       .  S
Al351       O361   1.952       .  S
Al351       O356   1.772       .  S
O352        C359   1.269       .  A
O352       Al360   1.954       .  S
O353        C362   1.269       .  A
O353       Al360   1.954       .  S
O354       Al360   1.878       .  S
O355        C362   1.257       .  A
O356       Al360   1.772       .  S
O357        C358   1.269       .  A
C358        C544   1.433       .  S
C359        C704   1.434       .  S
C362        C661   1.436       .  S
C363        C680   1.433       .  S
C363        O364   1.269       .  A
C365        N366   1.349       .  A
C365        N370   1.360       .  A
C365        C532   1.434       .  S
N366        C367   1.349       .  A
C367        N368   1.360       .  A
C367        C537   1.434       .  S
N368        C369   1.365       .  A
C369        N370   1.365       .  A
C369        C443   1.488       .  S
C371        N372   1.360       .  A
C371        N376   1.349       .  A
C371        C536   1.433       .  S
N372        C373   1.364       .  A
C373        N374   1.364       .  A
C373        C513   1.485       .  S
N374        C375   1.360       .  A
C375        N376   1.349       .  A
C375        C549   1.433       .  S
C377        N378   1.348       .  A
C377        N382   1.360       .  A
C377        C548   1.432   1_655  S
N378        C379   1.348       .  A
C379        N380   1.360       .  A
C379        C572   1.432       .  S
N380        C381   1.364       .  A
C381        N382   1.364       .  A
C383        N384   1.360       .  A
C383        N388   1.349       .  A
C383        C565   1.433       .  S
N384        C385   1.365       .  A
C385        N386   1.365       .  A
N386        C387   1.361       .  A
C387        N388   1.349       .  A
C387        C580   1.435   1_565  S
C389        N390   1.349       .  A
C389        N394   1.360       .  A
C389        C528   1.433   1_655  S
N390        C391   1.349       .  A
C391        N392   1.360       .  A
C391        C628   1.432       .  S
N392        C393   1.364       .  A
C393        N394   1.364       .  A
O395        C410   1.268       .  A
O395       Al403   1.949       .  S
C396        C525   1.433       .  S
C396        O406   1.268       .  A
C396        O397   1.256       .  A
O397       Al399   1.878       .  S
O398        C400   1.268       .  A
O398       Al399   1.950       .  S
Al399       O407   1.949       .  S
Al399       O409   1.877       .  S
Al399       O408   1.772       .  S
C400        C681   1.432       .  S
C400        O413   1.256       .  A
O401        C411   1.268       .  A
O401       Al403   1.949       .  S
O402        C415   1.269       .  A
O402       Al412   1.952       .  S
Al403       O416   1.877       .  S
Al403       O413   1.877       .  S
Al403       O408   1.773       .  S
O404        C411   1.256       .  A
O404       Al412   1.876       .  S
O405        C414   1.256       .  A
O405       Al412   1.878       .  S
O406       Al412   1.949       .  S
O407        C414   1.268       .  A
O408       Al412   1.772       .  S
O409        C410   1.256       .  A
C410        C620   1.432       .  S
C411        C689   1.431       .  S
C414        C604   1.433       .  S
C415        C529   1.433       .  S
C415        O416   1.256       .  A
C417        N418   1.348   1_556  A
C417        N422   1.360       .  A
C417        C564   1.432       .  S
N418        C419   1.348       .  A
C419        N420   1.360       .  A
C419        C636   1.433       .  S
N420        C421   1.365   1_554  A
C421        N422   1.364       .  A
N423        C428   1.356       .  A
N423        C427   1.356       .  A
N423        H455   1.033       .  S
N424        C431   1.354       .  A
N424        C432   1.355   1_554  A
N425        C430   1.356       .  A
N425        C429   1.356       .  A
N425        H456   1.033       .  S
N426        C433   1.355       .  A
N426        C434   1.354   1_554  A
C427        C435   1.388       .  A
C427        C443   1.422       .  A
C428        C444   1.421       .  A
C428        C436   1.387       .  A
C429        C437   1.387       .  A
C429        C446   1.421       .  A
C430        C445   1.421       .  A
C430        C438   1.388       .  A
C431        C443   1.420       .  A
C431        C439   1.387       .  A
C432        C446   1.420       .  A
C432        C440   1.386       .  A
C433        C441   1.387       .  A
C433        C444   1.420       .  A
C434        C442   1.387       .  A
C434        C445   1.420       .  A
C435        C436   1.376       .  A
C435        H447   1.082       .  S
C436        H448   1.082       .  S
C437        C438   1.375       .  A
C437        H449   1.082       .  S
C438        H450   1.082       .  S
C439        C440   1.376   1_554  A
C439        H451   1.082       .  S
C440        H452   1.082       .  S
C441        C442   1.376   1_554  A
C441        H453   1.082       .  S
C442        H454   1.082       .  S
N457        C462   1.356   1_565  A
N457        C461   1.356   1_565  A
N457        H489   1.032       .  S
N458        C465   1.354       .  A
N458        C466   1.355       .  A
N459        C464   1.356       .  A
N459        C463   1.356       .  A
N459        H490   1.033       .  S
N460        C467   1.354       .  A
N460        C468   1.354       .  A
C461        C469   1.388       .  A
C461        C477   1.421       .  A
C462        C478   1.421       .  A
C462        C470   1.388       .  A
C463        C471   1.387       .  A
C463        C480   1.422       .  A
C464        C479   1.422       .  A
C464        C472   1.388       .  A
C465        C477   1.420   1_565  A
C465        C473   1.387       .  A
C466        C480   1.420       .  A
C466        C474   1.386       .  A
C467        C475   1.387       .  A
C467        C478   1.420   1_565  A
C468        C476   1.387       .  A
C468        C479   1.420       .  A
C469        C470   1.376       .  A
C469        H481   1.082       .  S
C470        H482   1.082       .  S
C471        C472   1.377       .  A
C471        H483   1.082       .  S
C472        H484   1.082       .  S
C473        C474   1.376       .  A
C473        H485   1.082       .  S
C474        H486   1.082       .  S
C475        C476   1.375       .  A
C475        H487   1.082       .  S
C476        H488   1.082       .  S
N491        C496   1.356       .  A
N491        C495   1.354       .  A
N491        H523   1.033       .  S
N492        C499   1.354       .  A
N492        C500   1.355       .  A
N493        C498   1.355       .  A
N493        C497   1.357       .  A
N493        H524   1.033       .  S
N494        C501   1.355       .  A
N494        C502   1.354       .  A
C495        C503   1.388       .  A
C495        C511   1.422       .  A
C496        C512   1.422   1_655  A
C496        C504   1.387       .  A
C497        C505   1.387       .  A
C497        C514   1.422       .  A
C498        C513   1.423   1_655  A
C498        C506   1.388       .  A
C499        C511   1.421       .  A
C499        C507   1.387       .  A
C500        C514   1.420       .  A
C500        C508   1.386       .  A
C501        C509   1.386       .  A
C501        C512   1.420       .  A
C502        C510   1.387       .  A
C502        C513   1.421       .  A
C503        C504   1.378       .  A
C503        H515   1.082       .  S
C504        H516   1.082       .  S
C505        C506   1.379       .  A
C505        H517   1.082       .  S
C506        H518   1.082       .  S
C507        C508   1.373       .  A
C507        H519   1.082       .  S
C508        H520   1.082       .  S
C509        C510   1.373       .  A
C509        H521   1.082       .  S
C510        H522   1.082       .  S
C525        C526   1.205       .  T
C526        C527   1.412       .  S
C527        C528   1.205       .  T
C529        C530   1.206       .  T
C530        C531   1.413       .  S
C531        C532   1.206       .  T
C533        C534   1.205       .  T
C534        C535   1.412       .  S
C535        C536   1.205       .  T
C537        C538   1.206       .  T
C538        C539   1.412       .  S
C539        C540   1.205       .  T
C541        C542   1.206       .  T
C542        C543   1.413       .  S
C543        C544   1.206       .  T
C545        C546   1.204       .  T
C546        C547   1.410       .  S
C547        C548   1.204       .  T
C549        C550   1.205       .  T
C550        C551   1.412       .  S
C551        C552   1.205       .  T
C553        C554   1.207       .  T
C554        C555   1.414       .  S
C555        C556   1.207       .  T
C557        C558   1.206       .  T
C558        C559   1.413       .  S
C559        C560   1.206       .  T
C561        C562   1.205       .  T
C562        C563   1.411       .  S
C563        C564   1.205       .  T
C565        C566   1.205       .  T
C566        C567   1.412       .  S
C567        C568   1.205       .  T
C569        C570   1.204       .  T
C570        C571   1.411       .  S
C571        C572   1.205       .  T
C573        C574   1.205       .  T
C574        C575   1.412       .  S
C575        C576   1.205       .  T
C577        C578   1.206       .  T
C578        C579   1.413       .  S
C579        C580   1.206       .  T
C581        C582   1.205       .  T
C582        C583   1.412       .  S
C583        C584   1.205       .  T
C585        C586   1.204       .  T
C586        C587   1.411       .  S
C587        C588   1.205       .  T
C589        C590   1.206       .  T
C590        C591   1.413       .  S
C591        C592   1.206       .  T
C593        C594   1.205       .  T
C594        C595   1.411       .  S
C595        C596   1.205       .  T
C597        C598   1.202       .  T
C598        C599   1.407       .  S
C599        C600   1.203       .  T
C601        C602   1.206       .  T
C602        C603   1.412       .  S
C603        C604   1.205       .  T
C605        C606   1.204       .  T
C606        C607   1.411       .  S
C607        C608   1.205       .  T
C609        C610   1.205       .  T
C610        C611   1.411       .  S
C611        C612   1.204       .  T
C613        C614   1.204       .  T
C614        C615   1.409       .  S
C615        C616   1.204       .  T
C617        C618   1.205       .  T
C618        C619   1.411       .  S
C619        C620   1.205       .  T
C621        C622   1.204       .  T
C622        C623   1.410       .  S
C623        C624   1.204       .  T
C625        C626   1.204       .  T
C626        C627   1.410       .  S
C627        C628   1.204       .  T
C629        C630   1.205       .  T
C630        C631   1.412       .  S
C631        C632   1.205       .  T
C633        C634   1.205       .  T
C634        C635   1.412       .  S
C635        C636   1.205       .  T
C637        C638   1.206       .  T
C638        C639   1.413       .  S
C639        C640   1.206       .  T
C641        C642   1.206       .  T
C642        C643   1.413       .  S
C643        C644   1.206       .  T
C645        C646   1.205       .  T
C646        C647   1.411       .  S
C647        C648   1.205       .  T
C649        C650   1.203       .  T
C650        C651   1.408       .  S
C651        C652   1.203       .  T
C653        C654   1.207       .  T
C654        C655   1.415       .  S
C655        C656   1.207       .  T
C657        C658   1.204       .  T
C658        C659   1.411       .  S
C659        C660   1.205       .  T
C661        C662   1.207       .  T
C662        C663   1.414       .  S
C663        C664   1.207       .  T
C665        C666   1.206       .  T
C666        C667   1.412       .  S
C667        C668   1.205       .  T
C669        C670   1.206       .  T
C670        C671   1.414       .  S
C671        C672   1.207       .  T
C673        C674   1.205       .  T
C674        C675   1.412       .  S
C675        C676   1.206       .  T
C677        C678   1.205       .  T
C678        C679   1.412       .  S
C679        C680   1.205       .  T
C681        C682   1.205       .  T
C682        C683   1.411       .  S
C683        C684   1.205       .  T
C685        C686   1.206       .  T
C686        C687   1.413       .  S
C687        C688   1.206       .  T
C689        C690   1.204       .  T
C690        C691   1.411       .  S
C691        C692   1.205       .  T
C693        C694   1.206       .  T
C694        C695   1.412       .  S
C695        C696   1.205       .  T
C697        C698   1.207       .  T
C698        C699   1.414       .  S
C699        C700   1.207       .  T
C701        C702   1.206       .  T
C702        C703   1.413       .  S
C703        C704   1.206       .  T
C705        C706   1.206       .  T
C706        C707   1.413       .  S
C707        C708   1.206       .  T
C709        C710   1.205       .  T
C710        C711   1.412       .  S
C711        C712   1.205       .  T
C713        C714   1.205       .  T
C714        C715   1.412       .  S
C715        C716   1.205       .  T
