geometry optimzed in LAMMPS
_audit_creation_date              2020-11-30 
_audit_creation_method            'lammps2cif' 
_symmetry_space_group_name_H-M    'P1' 
_symmetry_Int_Tables_number       1 
_symmetry_cell_setting            triclinic 
loop_ 
_symmetry_equiv_pos_as_xyz 
  x,y,z 
_cell_length_a                    33.25282442 
_cell_length_b                    24.59842903015654 
_cell_length_c                    51.19075720756448 
_cell_angle_alpha                 89.9729941111846 
_cell_angle_beta                  123.13783194044666 
_cell_angle_gamma                 90.0076656633437 
loop_ 
_atom_site_label 
_atom_site_type_symbol 
_atom_site_fract_x 
_atom_site_fract_y 
_atom_site_fract_z 
_atom_site_charge 
C1          C  0.20788217  0.57786333  0.34427128     0.03100
C2          C  0.17301660  0.61148515  0.32066688    -0.13100
C3          C  0.16773457  0.66575426  0.32705994     0.00600
C4          C  0.19833141  0.68583253  0.35753648    -0.11600
C5          C  0.23355011  0.65215650  0.38137569     0.03100
C6          C  0.23760414  0.59801455  0.37469616    -0.11000
H7          H  0.15018697  0.59525199  0.29729111     0.08700
H8          H  0.19631420  0.72824884  0.36244216     0.06200
H9          H  0.26562067  0.57240512  0.39272166     0.06000
C10         C  0.33659625  0.73838062  0.43519479     0.80200
N11         N  0.34726171  0.72113123  0.46346181    -0.78100
C12         C  0.32108816  0.68088832  0.46577850     0.82600
N13         N  0.28362509  0.65794741  0.43926495    -0.78100
C14         C  0.27217081  0.67647336  0.41080981     0.82700
N15         N  0.29904776  0.71593560  0.40908853    -0.79800
N16         N  0.25455799  0.44840003  0.33945055    -0.27300
N17         N  0.22308317  0.43324501  0.34617570    -0.35200
C18         C  0.19795842  0.47668295  0.34527198     0.01000
C19         C  0.21381435  0.52159603  0.33736410     0.07000
C20         C  0.25009628  0.50239750  0.33412413    -0.06100
H21         H  0.17380201  0.47661107  0.35325364     0.07700
H22         H  0.27416810  0.52662104  0.33084671     0.08900
Cu23       Cu  0.22511756  0.36103676  0.36696788     0.44200
Cu24       Cu  0.30835507  0.39682578  0.34466684     0.42000
Cu25       Cu  0.35045826  0.33487227  0.41864720     0.43900
N26         N  0.25606988  0.34125665  0.41312709    -0.34700
N27         N  0.30289998  0.33569263  0.43295431    -0.29000
C28         C  0.31254977  0.33359250  0.46211079    -0.05100
C29         C  0.26955294  0.33726301  0.46025565     0.07100
C30         C  0.23458613  0.34258251  0.42895753     0.00900
H31         H  0.34822338  0.33153234  0.48309410     0.08600
H32         H  0.19690810  0.35119130  0.41868478     0.07700
N33         N  0.38091292  0.32037451  0.39314612    -0.36200
N34         N  0.36434522  0.34039579  0.36504001    -0.28300
C35         C  0.38852935  0.31727018  0.35362997    -0.03600
C36         C  0.42230730  0.28176121  0.37598065     0.05000
C37         C  0.41642144  0.28507022  0.40064191     0.03100
H38         H  0.38162103  0.32510254  0.33071790     0.08200
H39         H  0.43480903  0.26119451  0.42184761     0.07100
C40         C  0.26316682  0.34835532  0.48588355     0.03100
C41         C  0.27173278  0.40061590  0.49853183    -0.13100
C42         C  0.26350012  0.41392057  0.02220225     0.00600
C43         C  0.24753484  0.37073847  0.03331353    -0.11600
C44         C  0.23657492  0.31854679  0.01939665     0.03100
C45         C  0.24509333  0.30809883  0.49582056    -0.11000
H46         H  0.28297334  0.43068214  0.48850064     0.08700
H47         H  0.24203808  0.37679973  0.05198675     0.06200
H48         H  0.23707199  0.26840494  0.48485751     0.06000
C49         C  0.26786355  0.53873883  0.06881751     0.03100
C50         C  0.25751068  0.48717480  0.05509977    -0.13100
C51         C  0.27163925  0.47199309  0.03465770     0.00600
C52         C  0.29381049  0.51315925  0.02674002    -0.11600
C53         C  0.30282151  0.56591017  0.03976334     0.03100
C54         C  0.29077694  0.57743307  0.06145493    -0.11000
H55         H  0.23948717  0.45912046  0.06155860     0.08700
H56         H  0.30639443  0.50501403  0.51149880     0.06200
H57         H  0.29907315  0.61691044  0.07267014     0.06000
C58         C  0.33186093  0.30696660  0.21402721     0.03100
C59         C  0.36758134  0.27465123  0.23812395    -0.13100
C60         C  0.37432984  0.22043435  0.23239370     0.00600
C61         C  0.34427263  0.19899972  0.20223105    -0.11600
C62         C  0.30821743  0.23120632  0.17800828     0.03100
C63         C  0.30275130  0.28537003  0.18390241    -0.11000
H64         H  0.38994356  0.29180503  0.26130333     0.08700
H65         H  0.34743020  0.15659672  0.19785621     0.06200
H66         H  0.27413141  0.30986129  0.16548904     0.06000
C67         C  0.20771826  0.14149075  0.12460141     0.80200
N68         N  0.24476409  0.16478200  0.15065509    -0.78100
C69         C  0.27064049  0.20540664  0.14879903     0.82600
N70         N  0.25874944  0.22416340  0.12032571    -0.78100
C71         C  0.22193035  0.20042592  0.09390509     0.82700
N72         N  0.19663126  0.15914146  0.09629572    -0.79800
N73         N  0.28110420  0.43496668  0.21690563    -0.27300
N74         N  0.31125679  0.45098088  0.20923090    -0.35200
C75         C  0.33771445  0.40849890  0.21065504     0.01000
C76         C  0.32422233  0.36330336  0.21998299     0.07000
C77         C  0.28780613  0.38136544  0.22342530    -0.06100
H78         H  0.36129047  0.40919013  0.20222507     0.07700
H79         H  0.26519164  0.35645569  0.22773125     0.08900
Cu80       Cu  0.30575568  0.52305037  0.18718113     0.44200
Cu81       Cu  0.22641379  0.48522577  0.21155876     0.42000
Cu82       Cu  0.17989006  0.54567968  0.13613262     0.43900
N83         N  0.27381454  0.54424605  0.14111203    -0.34700
N84         N  0.22681971  0.54769685  0.12128357    -0.29000
C85         C  0.21708673  0.55030725  0.09208767    -0.05100
C86         C  0.26024593  0.54954090  0.09397372     0.07100
C87         C  0.29531226  0.54526018  0.12531319     0.00900
H88         H  0.18137097  0.55089436  0.07109009     0.08600
H89         H  0.33325462  0.53838429  0.13562811     0.07700
N90         N  0.15233913  0.56114918  0.16330284    -0.36200
N91         N  0.17050449  0.54190679  0.19177618    -0.28300
C92         C  0.14814778  0.56624551  0.20414580    -0.03600
C93         C  0.11390984  0.60174351  0.18207714     0.05000
C94         C  0.11761567  0.59712265  0.15656700     0.03100
H95         H  0.15671816  0.55936297  0.22753991     0.08200
H96         H  0.09840274  0.62070354  0.13527127     0.07100
C97         C  0.33426713  0.66435656  0.49735952     0.80200
N98         N  0.36709062  0.69509950  0.02166368    -0.78100
C99         C  0.38101192  0.68381367  0.05131059     0.82600
N100        N  0.36087350  0.64086399  0.05676352    -0.78100
C101        C  0.32721067  0.60917410  0.03281046     0.82700
N102        N  0.31351741  0.62114160  0.00286459    -0.79800
C103        C  0.20785354  0.21815308  0.06234825     0.80200
N104        N  0.17349135  0.18860423  0.03794000    -0.78100
C105        C  0.15840629  0.20116039  0.00824737     0.82600
N106        N  0.17845824  0.24418518  0.00287096    -0.78100
C107        C  0.21330424  0.27472781  0.02691032     0.82700
N108        N  0.22810516  0.26166646  0.05693914    -0.79800
C109        C  0.95952636  0.80544655  0.09453838     0.03100
C110        C  0.98849283  0.78478858  0.12491221    -0.13100
C111        C  0.98311886  0.73096540  0.13137813     0.00600
C112        C  0.94730886  0.69809749  0.10740788    -0.11600
C113        C  0.41729691  0.71903400  0.07703112     0.03100
C114        C  0.42401644  0.77298348  0.07081823    -0.11000
H115        H  0.01691947  0.80975079  0.14311132     0.08700
H116        H  0.94430897  0.65588564  0.11220688     0.06200
H117        H  0.40161265  0.78959884  0.04749702     0.06000
C118        C  0.08387050  0.64200111  0.18517088     0.80200
N119        N  0.04657587  0.66485173  0.15908426    -0.78100
C120        C  0.02094668  0.70586976  0.16080040     0.82600
N121        N  0.03327868  0.72544594  0.18922677    -0.78100
C122        C  0.07036577  0.70210860  0.21574609     0.82700
N123        N  0.09545485  0.66043216  0.21345246    -0.79800
N124        N  0.00960227  0.93410499  0.09183282    -0.27300
N125        N  0.47904435  0.94979451  0.09890479    -0.35200
C126        C  0.45245699  0.90707443  0.09698486     0.01000
C127        C  0.46702370  0.86200625  0.08829379     0.07000
C128        C  0.00387580  0.88035141  0.08565289    -0.06100
H129        H  0.42810526  0.90749160  0.10481091     0.07700
H130        H  0.02759058  0.85576301  0.08221658     0.08900
Cu131      Cu  0.48296683  0.02141808  0.12082682     0.44200
Cu132      Cu  0.06447338  0.98523907  0.09797629     0.42000
Cu133      Cu  0.10598864  0.05133182  0.17120598     0.43900
N134        N  0.51360543  0.04418097  0.16657230    -0.34700
N135        N  0.56033790  0.05071515  0.18631026    -0.29000
C136        C  0.56990026  0.05441235  0.21542045    -0.05100
C137        C  0.52689852  0.05091784  0.21360852     0.07100
C138        C  0.49209397  0.04395654  0.18238713     0.00900
H139        H  0.60553550  0.05731800  0.23637720     0.08600
H140        H  0.45455697  0.03471826  0.17225215     0.07700
N141        N  0.13612551  0.06418752  0.14536858    -0.36200
N142        N  0.11985477  0.04276917  0.11760582    -0.28300
C143        C  0.14369854  0.06549009  0.10581908    -0.03600
C144        C  0.17695047  0.10213558  0.12757577     0.05000
C145        C  0.17109073  0.09992020  0.15226832     0.03100
H146        H  0.13686613  0.05666888  0.08302406     0.08200
H147        H  0.18903085  0.12490031  0.17303955     0.07100
C148        C  0.52029702  0.03999889  0.23919967     0.03100
C149        C  0.53037071  0.98819180  0.25259578    -0.13100
C150        C  0.51911550  0.97363320  0.27458073     0.00600
C151        C  0.49925588  0.01558539  0.28383062    -0.11600
C152        C  0.48931748  0.06818506  0.27043254     0.03100
C153        C  0.49945667  0.07925427  0.24776120    -0.11000
H154        H  0.04226982  0.95873225  0.24279217     0.08700
H155        H  0.48947204  0.00833020  0.30039029     0.06200
H156        H  0.49102293  0.11877116  0.23655934     0.06000
C157        C  0.02499665  0.84851645  0.32167367     0.03100
C158        C  0.01573462  0.90066323  0.30876540    -0.13100
C159        C  0.02629644  0.91507493  0.28643099     0.00600
C160        C  0.04526296  0.87284710  0.27669681    -0.11600
C161        C  0.05498023  0.82013527  0.28995749     0.03100
C162        C  0.04497524  0.80901345  0.31266396    -0.11000
H163        H  0.00124824  0.92950295  0.31731637     0.08700
H164        H  0.05432536  0.87986164  0.25976528     0.06200
H165        H  0.05287440  0.76924952  0.32356207     0.06000
N166        N  0.02957696  0.95104636  0.46690739    -0.27300
N167        N  0.06175831  0.93619350  0.46076570    -0.35200
C168        C  0.08776815  0.97956033  0.46277965     0.01000
C169        C  0.07170547  0.02416601  0.47076945     0.07000
C170        C  0.03433960  0.00484509  0.47286719    -0.06100
H171        H  0.11277687  0.97979640  0.45547994     0.07700
H172        H  0.00990037  0.02892999  0.97610249     0.08900
Cu173      Cu  0.05982962  0.86459940  0.43951646     0.44200
Cu174      Cu  0.97551605  0.89875246  0.46061296     0.42000
Cu175      Cu  0.93583787  0.83244822  0.38768083     0.43900
N176        N  0.03030250  0.84261529  0.39379891    -0.34700
N177        N  0.98381345  0.83476984  0.37377916    -0.29000
C178        C  0.97488529  0.83171310  0.34481638    -0.05100
C179        C  0.01806179  0.83713370  0.34704069     0.07100
C180        C  0.05229346  0.84447288  0.37831137     0.00900
H181        H  0.93952839  0.82789049  0.32369566     0.08600
H182        H  0.08968574  0.85484731  0.38871805     0.07700
N183        N  0.40782884  0.81627909  0.41440097    -0.36200
N184        N  0.42310467  0.83843777  0.44185084    -0.28300
C185        C  0.39960278  0.81513713  0.45369385    -0.03600
C186        C  0.36759299  0.77730790  0.43229367     0.05000
C187        C  0.37378926  0.77937288  0.40774469     0.03100
H188        H  0.40562853  0.82465409  0.47620517     0.08200
H189        H  0.35651499  0.75387188  0.38717994     0.07100
C190        C  0.07866767  0.08058587  0.46465074     0.03500
C191        C  0.11486469  0.11275570  0.48847535    -0.13100
C192        C  0.12174861  0.16674338  0.48251002     0.00600
C193        C  0.09147362  0.18800321  0.45227351    -0.11600
C194        C  0.05516114  0.15569007  0.42824423     0.03100
C195        C  0.54955808  0.10140187  0.43457899    -0.11000
H196        H  0.13713745  0.09569484  0.01140882     0.08700
H197        H  0.09486050  0.23020229  0.44765757     0.06200
H198        H  0.52079789  0.07676052  0.41638302     0.06000
C199        C  0.45388380  0.24275334  0.37365673     0.80200
N200        N  0.44388388  0.22509310  0.34561061    -0.78100
C201        C  0.47022273  0.18447831  0.34375453     0.82600
N202        N  0.50704270  0.16144768  0.37049329    -0.78100
C203        C  0.51784310  0.18028285  0.39872776     0.82700
N204        N  0.49092323  0.22021726  0.40002523    -0.79800
C205        C  0.08437403  0.71992720  0.24731399     0.80200
N206        N  0.06447737  0.76380522  0.25271758    -0.78100
C207        C  0.07874063  0.77647078  0.28270654     0.82600
N208        N  0.11251888  0.74493018  0.30672233    -0.78100
C209        C  0.13215157  0.70146049  0.30134806     0.82700
N210        N  0.11772815  0.68949369  0.27170107    -0.79800
C211        C  0.45760672  0.16731367  0.31239139     0.80200
N212        N  0.42426178  0.19753101  0.28787172    -0.78100
C213        C  0.41066636  0.18578132  0.25836952     0.82600
N214        N  0.43113654  0.14282725  0.25326875    -0.78100
C215        C  0.46495820  0.11157348  0.27741006     0.82700
N216        N  0.47832835  0.12392333  0.30726858    -0.79800
C217        C  0.20701043  0.57844691  0.84416811     0.03100
C218        C  0.17218988  0.61211057  0.82057590    -0.13100
C219        C  0.16692438  0.66636655  0.82698827     0.00600
C220        C  0.19749019  0.68638695  0.85748774    -0.11600
C221        C  0.23266671  0.65265538  0.88132716     0.03100
C222        C  0.23669886  0.59852590  0.87461330    -0.11000
H223        H  0.14939235  0.59592150  0.79718624     0.08700
H224        H  0.19549481  0.72879949  0.86240914     0.06200
H225        H  0.26469153  0.57287811  0.89262663     0.06000
C226        C  0.33584114  0.73870344  0.93517476     0.80200
N227        N  0.34658633  0.72134746  0.96343856    -0.78100
C228        C  0.32042005  0.68110921  0.96575908     0.82600
N229        N  0.28287002  0.65826633  0.93924054    -0.78100
C230        C  0.27132826  0.67690920  0.91078145     0.82700
N231        N  0.29821414  0.71636787  0.90906521    -0.79800
N232        N  0.25367494  0.44906574  0.83922508    -0.27300
N233        N  0.22211806  0.43383632  0.84586528    -0.35200
C234        C  0.19700082  0.47725210  0.84499768     0.01000
C235        C  0.21295375  0.52222562  0.83720837     0.07000
C236        C  0.24927462  0.50308985  0.83399331    -0.06100
H237        H  0.17278428  0.47710798  0.85293181     0.07700
H238        H  0.27341159  0.52736068  0.83080088     0.08900
Cu239      Cu  0.22401491  0.36155198  0.86654496     0.44200
Cu240      Cu  0.30751967  0.39757300  0.84444149     0.42000
Cu241      Cu  0.34943169  0.33577650  0.91835663     0.43900
N242        N  0.25492912  0.34183287  0.91271022    -0.34700
N243        N  0.30176561  0.33637461  0.93255459    -0.29000
C244        C  0.31139741  0.33421685  0.96169973    -0.05100
C245        C  0.26839297  0.33775342  0.95983108     0.07100
C246        C  0.23342251  0.34305692  0.92853004     0.00900
H247        H  0.34706928  0.33222166  0.98268861     0.08600
H248        H  0.19572665  0.35156764  0.91824917     0.07700
N249        N  0.38010301  0.32129702  0.89300714    -0.36200
N250        N  0.36359653  0.34125650  0.86489883    -0.28300
C251        C  0.38786634  0.31810597  0.85355892    -0.03600
C252        C  0.42163274  0.28264803  0.87596208     0.05000
C253        C  0.41565254  0.28601050  0.90057897     0.03100
H254        H  0.38099908  0.32585140  0.83064972     0.08200
H255        H  0.43397041  0.26214926  0.92179113     0.07100
C256        C  0.26205987  0.34876750  0.98548186     0.03100
C257        C  0.27062523  0.40100311  0.99814885    -0.13100
C258        C  0.26417221  0.41373322  0.52237968     0.00600
C259        C  0.24789295  0.37066353  0.53335575    -0.11600
C260        C  0.23704422  0.31842430  0.51950465     0.03100
C261        C  0.24429889  0.30837801  0.99555279    -0.11000
H262        H  0.28154519  0.43121084  0.98799613     0.08700
H263        H  0.24203988  0.37683032  0.55186399     0.06200
H264        H  0.23626999  0.26869857  0.98457205     0.06000
C265        C  0.26833314  0.53873616  0.56886017     0.03100
C266        C  0.25816417  0.48707193  0.55526674    -0.13100
C267        C  0.27218767  0.47187531  0.53476194     0.00600
C268        C  0.29416370  0.51310423  0.52672567    -0.11600
C269        C  0.30310291  0.56589389  0.53969344     0.03100
C270        C  0.29105959  0.57746229  0.56137870    -0.11000
H271        H  0.24036419  0.45898558  0.56187664     0.08700
H272        H  0.30614047  0.50501914  0.01156968     0.06200
H273        H  0.29925657  0.61699753  0.57252474     0.06000
C274        C  0.33158244  0.30816174  0.71407276     0.03100
C275        C  0.36713634  0.27570595  0.73817059    -0.13100
C276        C  0.37366841  0.22142468  0.73242075     0.00600
C277        C  0.34357257  0.20007307  0.70224639    -0.11600
C278        C  0.30766918  0.23240955  0.67802924     0.03100
C279        C  0.30240876  0.28663445  0.68393402    -0.11000
H280        H  0.38953465  0.29279815  0.76136316     0.08700
H281        H  0.34656405  0.15762833  0.69785818     0.06200
H282        H  0.27389222  0.31123028  0.66552334     0.06000
C283        C  0.20698979  0.14288748  0.62468143     0.80200
N284        N  0.24397430  0.16627672  0.65071688    -0.78100
C285        C  0.27000508  0.20667310  0.64883659     0.82600
N286        N  0.25833490  0.22510482  0.62035463    -0.78100
C287        C  0.22155910  0.20126918  0.59395300     0.82700
N288        N  0.19611148  0.16019918  0.59636724    -0.79800
N289        N  0.28120588  0.43640003  0.71695472    -0.27300
N290        N  0.31145426  0.45225040  0.70932846    -0.35200
C291        C  0.33780645  0.40964410  0.71076679     0.01000
C292        C  0.32413809  0.36454796  0.72005537     0.07000
C293        C  0.28773707  0.38279401  0.72345977    -0.06100
H294        H  0.36141798  0.41018772  0.70236299     0.07700
H295        H  0.26500473  0.35800732  0.72771706     0.08900
Cu296      Cu  0.30618860  0.52424674  0.68729021     0.44200
Cu297      Cu  0.22658490  0.48680734  0.71154161     0.42000
Cu298      Cu  0.18040724  0.54761163  0.63622865     0.43900
N299        N  0.27430952  0.54502657  0.64117196    -0.34700
N300        N  0.22733203  0.54878849  0.62134560    -0.29000
C301        C  0.21760336  0.55104027  0.59213939    -0.05100
C302        C  0.26075382  0.54968569  0.59402323     0.07100
C303        C  0.29580197  0.54546132  0.62536567     0.00900
H304        H  0.18189068  0.55180705  0.57114287     0.08600
H305        H  0.33370925  0.53829693  0.63569107     0.07700
N306        N  0.15267991  0.56291541  0.66333310    -0.36200
N307        N  0.17070678  0.54347443  0.69175154    -0.28300
C308        C  0.14819457  0.56756207  0.70408097    -0.03600
C309        C  0.11399508  0.60311351  0.68204670     0.05000
C310        C  0.11788229  0.59878779  0.65659327     0.03100
H311        H  0.15661075  0.56043993  0.72742045     0.08200
H312        H  0.09869987  0.62245555  0.63532918     0.07100
C313        C  0.33375975  0.66446911  0.99736204     0.80200
N314        N  0.36742691  0.69511496  0.52166132    -0.78100
C315        C  0.38115412  0.68392988  0.55128185     0.82600
N316        N  0.36100547  0.64096367  0.55670346    -0.78100
C317        C  0.32750814  0.60915467  0.53275326     0.82700
N318        N  0.31399701  0.62101391  0.50283202    -0.79800
C319        C  0.20777516  0.21858959  0.56239867     0.80200
N320        N  0.17361601  0.18881206  0.53801890    -0.78100
C321        C  0.15883713  0.20103253  0.50833820     0.82600
N322        N  0.17899051  0.24394611  0.50295056    -0.78100
C323        C  0.21363574  0.27470090  0.52696859     0.82700
N324        N  0.22812011  0.26197728  0.55697633    -0.79800
C325        C  0.95933783  0.80605945  0.59438547     0.03100
C326        C  0.98819020  0.78550458  0.62479066    -0.13100
C327        C  0.98279790  0.73171371  0.63128259     0.00600
C328        C  0.94709685  0.69878010  0.60730373    -0.11600
C329        C  0.41720431  0.71928980  0.57701132     0.03100
C330        C  0.42390949  0.77321696  0.57077020    -0.11000
H331        H  0.01655150  0.81051802  0.64299834     0.08700
H332        H  0.94410554  0.65658084  0.61212901     0.06200
H333        H  0.40166099  0.78971524  0.54740856     0.06000
C334        C  0.08375092  0.64308441  0.68512135     0.80200
N335        N  0.04642946  0.66586106  0.65902552    -0.78100
C336        C  0.02060875  0.70666561  0.66071773     0.82600
N337        N  0.03277620  0.72612053  0.68913258    -0.78100
C338        C  0.06989210  0.70284717  0.71566589     0.82700
N339        N  0.09517204  0.66136802  0.71339582    -0.79800
N340        N  0.00942460  0.93478620  0.59187146    -0.27300
N341        N  0.47841382  0.95015666  0.59880250    -0.35200
C342        C  0.45180795  0.90737630  0.59676517     0.01000
C343        C  0.46668046  0.86234696  0.58825697     0.07000
C344        C  0.00389430  0.88101567  0.58575027    -0.06100
H345        H  0.42722254  0.90773477  0.60440555     0.07700
H346        H  0.02785858  0.85648044  0.58252596     0.08900
Cu347      Cu  0.48187372  0.02174619  0.62059426     0.44200
Cu348      Cu  0.06433323  0.98606880  0.59825440     0.42000
Cu349      Cu  0.10469168  0.05331711  0.67103635     0.43900
N350        N  0.51209592  0.04468310  0.66626752    -0.34700
N351        N  0.55873134  0.05191764  0.68603638    -0.29000
C352        C  0.56814340  0.05569222  0.71510421    -0.05100
C353        C  0.52513850  0.05146058  0.71323009     0.07100
C354        C  0.49049391  0.04401332  0.68202372     0.00900
H355        H  0.60370613  0.05911098  0.73608181     0.08600
H356        H  0.45305324  0.03421302  0.67187031     0.07700
N357        N  0.13513597  0.06596987  0.64537433    -0.36200
N358        N  0.11930061  0.04406018  0.61778370    -0.28300
C359        C  0.14326886  0.06662899  0.60605028    -0.03600
C360        C  0.17614524  0.10369697  0.62766506     0.05000
C361        C  0.16994789  0.10189242  0.65222095     0.03100
H362        H  0.13679509  0.05738138  0.58339178     0.08200
H363        H  0.18757922  0.12721552  0.67285704     0.07100
C364        C  0.51859962  0.04046216  0.73883289     0.03100
C365        C  0.52864257  0.98862775  0.75218210    -0.13100
C366        C  0.51779809  0.97415572  0.77437609     0.00600
C367        C  0.49819359  0.01617267  0.78377421    -0.11600
C368        C  0.48811033  0.06873844  0.77032010     0.03100
C369        C  0.49801875  0.07977032  0.74753977    -0.11000
H370        H  0.03965590  0.95877873  0.74177277     0.08700
H371        H  0.48877226  0.00901213  0.80052260     0.06200
H372        H  0.48959532  0.11930389  0.73635635     0.06000
C373        C  0.02368825  0.84885706  0.82127325     0.03100
C374        C  0.01404452  0.90088143  0.80818686    -0.13100
C375        C  0.02483543  0.91540461  0.78597709     0.00600
C376        C  0.04420451  0.87333142  0.77643428    -0.11600
C377        C  0.05404339  0.82065512  0.78974348     0.03100
C378        C  0.04399437  0.80949671  0.81242284    -0.11000
H379        H  0.99910736  0.92956605  0.81651261     0.08700
H380        H  0.05355465  0.88047365  0.75965217     0.06200
H381        H  0.05209950  0.76980867  0.82341995     0.06000
N382        N  0.02944526  0.95116174  0.96693073    -0.27300
N383        N  0.06143406  0.93642295  0.96059296    -0.35200
C384        C  0.08723130  0.97988306  0.96243472     0.01000
C385        C  0.07123211  0.02441393  0.97052182     0.07000
C386        C  0.03412608  0.00497032  0.97285507    -0.06100
H387        H  0.11205936  0.98020954  0.95498918     0.07700
H388        H  0.01000144  0.02889533  0.47596366     0.08900
Cu389      Cu  0.05950479  0.86479575  0.93936701     0.44200
Cu390      Cu  0.97566458  0.89874155  0.96094590     0.42000
Cu391      Cu  0.93539922  0.83306038  0.88780941     0.43900
N392        N  0.02961935  0.84290965  0.89359814    -0.34700
N393        N  0.98307269  0.83527540  0.87368336    -0.29000
C394        C  0.97387901  0.83229550  0.84465395    -0.05100
C395        C  0.01694543  0.83752946  0.84672303     0.07100
C396        C  0.05139438  0.84467576  0.87797379     0.00900
H397        H  0.93842801  0.82862492  0.82360040     0.08600
H398        H  0.08879491  0.85488400  0.88827851     0.07700
N399        N  0.40708716  0.81660038  0.91440386    -0.36200
N400        N  0.42243364  0.83866098  0.94188515    -0.28300
C401        C  0.39893540  0.81534480  0.95372416    -0.03600
C402        C  0.36685080  0.77761303  0.93228449     0.05000
C403        C  0.37300366  0.77974066  0.90771962     0.03100
H404        H  0.40500940  0.82478831  0.97625639     0.08200
H405        H  0.35566897  0.75431554  0.88712389     0.07100
C406        C  0.07810351  0.08089263  0.96445086     0.03500
C407        C  0.11433968  0.11298592  0.98829218    -0.13100
C408        C  0.12117386  0.16703463  0.98239653     0.00600
C409        C  0.09078695  0.18845012  0.95221030    -0.11600
C410        C  0.05443328  0.15620465  0.92815932     0.03100
C411        C  0.54856320  0.10177895  0.93447055    -0.11000
H412        H  0.13757304  0.09558980  0.51163320     0.08700
H413        H  0.09416111  0.23068359  0.94764582     0.06200
H414        H  0.51969386  0.07723882  0.91628090     0.06000
C415        C  0.45314014  0.24350956  0.87366045     0.80200
N416        N  0.44310559  0.22584365  0.84561134    -0.78100
C417        C  0.46932404  0.18511595  0.84373516     0.82600
N418        N  0.50606703  0.16196971  0.87045651    -0.78100
C419        C  0.51690904  0.18079144  0.89870095     0.82700
N420        N  0.49010479  0.22085334  0.90002412    -0.79800
C421        C  0.08375706  0.72057961  0.74722007     0.80200
N422        N  0.06378484  0.76441835  0.75258931    -0.78100
C423        C  0.07794611  0.77706864  0.78256007     0.82600
N424        N  0.11169586  0.74553937  0.80659827    -0.78100
C425        C  0.13140190  0.70209970  0.80126018     0.82700
N426        N  0.11708087  0.69015493  0.77162611    -0.79800
C427        C  0.45667287  0.16797916  0.81236992     0.80200
N428        N  0.42344527  0.19834015  0.78787870    -0.78100
C429        C  0.40983185  0.18662134  0.75837270     0.82600
N430        N  0.43015341  0.14356086  0.75324176    -0.78100
C431        C  0.46386684  0.11217777  0.77735285     0.82700
N432        N  0.47726615  0.12449069  0.80721857    -0.79800
C433        C  0.70750065  0.57752026  0.34405224     0.03100
C434        C  0.67264879  0.61119652  0.32049480    -0.13100
C435        C  0.66750588  0.66547200  0.32692784     0.00600
C436        C  0.69820474  0.68550846  0.35739934    -0.11600
C437        C  0.73343602  0.65178326  0.38119949     0.03100
C438        C  0.73736702  0.59762149  0.37448062    -0.11000
H439        H  0.64972914  0.59500465  0.29711590     0.08700
H440        H  0.69626773  0.72793569  0.36232380     0.06200
H441        H  0.76538771  0.57196289  0.39246614     0.06000
C442        C  0.83625131  0.73840935  0.43489902     0.80200
N443        N  0.84716019  0.72101971  0.46319902    -0.78100
C444        C  0.82124810  0.68052266  0.46557994     0.82600
N445        N  0.78381475  0.65745536  0.43909894    -0.78100
C446        C  0.77213690  0.67608817  0.41061464     0.82700
N447        N  0.79873633  0.71583154  0.40883076    -0.79800
N448        N  0.75384695  0.44805304  0.33897055    -0.27300
N449        N  0.72244270  0.43290042  0.34575951    -0.35200
C450        C  0.69742293  0.47636222  0.34495687     0.01000
C451        C  0.71328930  0.52127384  0.33705979     0.07000
C452        C  0.74944281  0.50206090  0.33370194    -0.06100
H453        H  0.67336307  0.47629833  0.35301431     0.07700
H454        H  0.77350396  0.52627548  0.33040997     0.08900
Cu455      Cu  0.72449027  0.36070765  0.36656652     0.44200
Cu456      Cu  0.80763014  0.39659981  0.34410560     0.42000
Cu457      Cu  0.84994509  0.33520254  0.41821208     0.43900
N458        N  0.75558959  0.34111110  0.41276571    -0.34700
N459        N  0.80244935  0.33576391  0.43255806    -0.29000
C460        C  0.81219966  0.33370056  0.46173663    -0.05100
C461        C  0.76924432  0.33717428  0.45994126     0.07100
C462        C  0.73418505  0.34234077  0.42864853     0.00900
H463        H  0.84791155  0.33180970  0.48269423     0.08600
H464        H  0.69648854  0.35077851  0.41841083     0.07700
N465        N  0.88060195  0.32085274  0.39283206    -0.36200
N466        N  0.86396500  0.34066096  0.36467434    -0.28300
C467        C  0.88832984  0.31765339  0.35336600    -0.03600
C468        C  0.92229249  0.28244465  0.37583780     0.05000
C469        C  0.91632944  0.28580258  0.40046289     0.03100
H470        H  0.88139356  0.32532322  0.33043247     0.08200
H471        H  0.93479473  0.26208905  0.42172793     0.07100
C472        C  0.76296294  0.34825068  0.48561261     0.03100
C473        C  0.77157604  0.40049833  0.49827288    -0.13100
C474        C  0.76287053  0.41376856  0.02151785     0.00600
C475        C  0.74743599  0.37049003  0.03289712    -0.11600
C476        C  0.73641786  0.31828785  0.01898502     0.03100
C477        C  0.74501471  0.30797006  0.49561851    -0.11000
H478        H  0.78265431  0.43061062  0.48816618     0.08700
H479        H  0.74244471  0.37653873  0.05179588     0.06200
H480        H  0.73695721  0.26828404  0.48464416     0.06000
C481        C  0.76684039  0.53869621  0.06787326     0.03100
C482        C  0.75635252  0.48718817  0.05407779    -0.13100
C483        C  0.77105426  0.47179484  0.03397094     0.00600
C484        C  0.79383817  0.51267549  0.02637454    -0.11600
C485        C  0.80280071  0.56545369  0.03935514     0.03100
C486        C  0.79027467  0.57717295  0.06078857    -0.11000
H487        H  0.73782705  0.45926860  0.06022710     0.08700
H488        H  0.80682422  0.50461101  0.51150113     0.06200
H489        H  0.79863918  0.61662055  0.07204033     0.06000
C490        C  0.83216090  0.30731197  0.21378869     0.03100
C491        C  0.86766563  0.27496629  0.23799397    -0.13100
C492        C  0.87438951  0.22067937  0.23236094     0.00600
C493        C  0.84446232  0.19917671  0.20220416    -0.11600
C494        C  0.80857907  0.23137736  0.17788178     0.03100
C495        C  0.80319498  0.28563858  0.18366666    -0.11000
H496        H  0.88992090  0.29217334  0.26116748     0.08700
H497        H  0.84758736  0.15672297  0.19790142     0.06200
H498        H  0.77471085  0.31014394  0.16517374     0.06000
C499        C  0.70832324  0.14130300  0.12459026     0.80200
N500        N  0.74531343  0.16474460  0.15060242    -0.78100
C501        C  0.77104598  0.20547574  0.14868942     0.82600
N502        N  0.75908292  0.22416778  0.12018715    -0.78100
C503        C  0.72232540  0.20026880  0.09379988     0.82700
N504        N  0.69715525  0.15889642  0.09625550    -0.79800
N505        N  0.78156478  0.43546570  0.21664823    -0.27300
N506        N  0.81134046  0.45133036  0.20863076    -0.35200
C507        C  0.83769876  0.40880639  0.20997315     0.01000
C508        C  0.82456379  0.36374687  0.21962913     0.07000
C509        C  0.78844374  0.38192735  0.22334129    -0.06100
H510        H  0.86096913  0.40936113  0.20130772     0.07700
H511        H  0.76610795  0.35711362  0.22793961     0.08900
Cu512      Cu  0.80541212  0.52326330  0.18635456     0.44200
Cu513      Cu  0.72703325  0.48581304  0.21147834     0.42000
Cu514      Cu  0.67946634  0.54536786  0.13564380     0.43900
N515        N  0.77308439  0.54433149  0.14024599    -0.34700
N516        N  0.72605087  0.54746549  0.12050506    -0.29000
C517        C  0.71612669  0.54994632  0.09125433    -0.05100
C518        C  0.75921153  0.54947165  0.09302841     0.07100
C519        C  0.79441656  0.54548619  0.12435072     0.00900
H520        H  0.68035357  0.55030372  0.07030658     0.08600
H521        H  0.83237386  0.53886117  0.13459970     0.07700
N522        N  0.65243968  0.56121517  0.16309604    -0.36200
N523        N  0.67096472  0.54231730  0.19167953    -0.28300
C524        C  0.64879128  0.56680405  0.20413529    -0.03600
C525        C  0.61430301  0.60204754  0.18201926     0.05000
C526        C  0.61767722  0.59711836  0.15638869     0.03100
H527        H  0.65763705  0.56017603  0.22761186     0.08200
H528        H  0.59817141  0.62041807  0.13500008     0.07100
C529        C  0.83455512  0.66396706  0.49718690     0.80200
N530        N  0.86765242  0.69444459  0.02160221    -0.78100
C531        C  0.88134960  0.68318371  0.05121161     0.82600
N532        N  0.86107569  0.64025792  0.05657988    -0.78100
C533        C  0.82751675  0.60856218  0.03257492     0.82700
N534        N  0.81403890  0.62053583  0.00267566    -0.79800
C535        C  0.70817306  0.21789558  0.06220648     0.80200
N536        N  0.67383322  0.18822929  0.03785267    -0.78100
C537        C  0.65864028  0.20068470  0.00812991     0.82600
N538        N  0.67855818  0.24372852  0.00266593    -0.78100
C539        C  0.71339142  0.27438500  0.02664244     0.82700
N540        N  0.72829870  0.26143669  0.05670725    -0.79800
C541        C  0.45974943  0.80574098  0.09461633     0.03100
C542        C  0.48882797  0.78493713  0.12494115    -0.13100
C543        C  0.48334574  0.73114109  0.13137341     0.00600
C544        C  0.44734069  0.69842685  0.10743070    -0.11600
C545        C  0.91739774  0.71855087  0.07695980     0.03100
C546        C  0.92401899  0.77252109  0.07072540    -0.11000
H547        H  0.51740112  0.80977502  0.14312932     0.08700
H548        H  0.44425773  0.65622920  0.11221125     0.06200
H549        H  0.90171072  0.78902842  0.04736989     0.06000
C550        C  0.58421630  0.64225883  0.18511581     0.80200
N551        N  0.54688057  0.66507304  0.15902831    -0.78100
C552        C  0.52116088  0.70597362  0.16075563     0.82600
N553        N  0.53341444  0.72545374  0.18917692    -0.78100
C554        C  0.57051995  0.70215888  0.21568841     0.82700
N555        N  0.59572472  0.66060555  0.21339932    -0.79800
N556        N  0.51027774  0.93413529  0.09207837    -0.27300
N557        N  0.97810841  0.94963637  0.09845797    -0.35200
C558        C  0.95170238  0.90676812  0.09659584     0.01000
C559        C  0.96666674  0.86172787  0.08815537     0.07000
C560        C  0.50420145  0.88045407  0.08571102    -0.06100
H561        H  0.92718901  0.90710951  0.10429395     0.07700
H562        H  0.52767393  0.85576491  0.08209445     0.08900
Cu563      Cu  0.98143052  0.02136792  0.12008588     0.44200
Cu564      Cu  0.56529258  0.98495016  0.09819836     0.42000
Cu565      Cu  0.60765268  0.05036620  0.17178415     0.43900
N566        N  0.01181420  0.04414667  0.16579136    -0.34700
N567        N  0.05847772  0.05121090  0.18554809    -0.29000
C568        C  0.06794619  0.05490911  0.21462797    -0.05100
C569        C  0.02496263  0.05077789  0.21278036     0.07100
C570        C  0.99025780  0.04348011  0.18157620     0.00900
H571        H  0.10353580  0.05816722  0.23559684     0.08600
H572        H  0.95280236  0.03378114  0.17143692     0.07700
N573        N  0.63733240  0.06351083  0.14567347    -0.36200
N574        N  0.62076423  0.04234001  0.11781397    -0.28300
C575        C  0.64434993  0.06525525  0.10589596    -0.03600
C576        C  0.67773851  0.10179078  0.12765534     0.05000
C577        C  0.67223114  0.09929218  0.15249297     0.03100
H578        H  0.63722457  0.05666777  0.08300340     0.08200
H579        H  0.69035989  0.12412689  0.17331914     0.07100
C580        C  0.01853790  0.03970010  0.23841559     0.03100
C581        C  0.02810566  0.98768052  0.25149752    -0.13100
C582        C  0.01805387  0.97345504  0.27409653     0.00600
C583        C  0.99930659  0.01575750  0.28393946    -0.11600
C584        C  0.98910155  0.06830426  0.27043840     0.03100
C585        C  0.99864733  0.07923452  0.24748209    -0.11000
H586        H  0.54591314  0.95961980  0.24463172     0.08700
H587        H  0.99073464  0.00887420  0.30112257     0.06200
H588        H  0.99038308  0.11884638  0.23639310     0.06000
C589        C  0.52674689  0.84899090  0.32255333     0.03100
C590        C  0.51806833  0.90132410  0.30993564    -0.13100
C591        C  0.52733922  0.91528310  0.28693875     0.00600
C592        C  0.54508304  0.87266300  0.27660188    -0.11600
C593        C  0.55502870  0.82002083  0.28997410     0.03100
C594        C  0.54566255  0.80912604  0.31300358    -0.11000
H595        H  0.50508060  0.93064159  0.31922855     0.08700
H596        H  0.55288397  0.87931122  0.25903319     0.06200
H597        H  0.55335941  0.76928264  0.32379741     0.06000
N598        N  0.53031887  0.95057490  0.46732450    -0.27300
N599        N  0.56279497  0.93576393  0.46143863    -0.35200
C600        C  0.58864469  0.97923127  0.46337355     0.01000
C601        C  0.57214500  0.02386154  0.47102430     0.07000
C602        C  0.53471575  0.00445473  0.47302360    -0.06100
H603        H  0.61383237  0.97947272  0.45621979     0.07700
H604        H  0.50930810  0.02861875  0.97572646     0.08900
Cu605      Cu  0.56147818  0.86408017  0.44049450     0.44200
Cu606      Cu  0.47637500  0.89810473  0.46104108     0.42000
Cu607      Cu  0.43777590  0.83069714  0.38860290     0.43900
N608        N  0.53218395  0.84251255  0.39475055    -0.34700
N609        N  0.48579154  0.83400548  0.37473803    -0.29000
C610        C  0.47690803  0.83118098  0.34578061    -0.05100
C611        C  0.52000512  0.83754665  0.34799881     0.07100
C612        C  0.55414657  0.84514627  0.37925792     0.00900
H613        H  0.44160501  0.82690270  0.32466286     0.08600
H614        H  0.59142667  0.85606728  0.38966314     0.07700
N615        N  0.90646425  0.81749668  0.41375732    -0.36200
N616        N  0.92214853  0.83918411  0.44137547    -0.28300
C617        C  0.89904114  0.81541644  0.45336840    -0.03600
C618        C  0.86687593  0.77776721  0.43190015     0.05000
C619        C  0.87256094  0.78043601  0.40714966     0.03100
H620        H  0.90548263  0.82444624  0.47604091     0.08200
H621        H  0.85508341  0.75518834  0.38648209     0.07100
C622        C  0.57897827  0.08022763  0.46476984     0.03500
C623        C  0.61520514  0.11246411  0.48851297    -0.13100
C624        C  0.62199622  0.16642253  0.48246749     0.00600
C625        C  0.59164629  0.18756327  0.45220617    -0.11600
C626        C  0.55530972  0.15516050  0.42823940     0.03100
C627        C  0.04935351  0.10189077  0.43448447    -0.11000
H628        H  0.63746256  0.09528972  0.01145739     0.08700
H629        H  0.59496979  0.22974669  0.44753124     0.06200
H630        H  0.02061793  0.07731278  0.41622568     0.06000
C631        C  0.95394403  0.24345708  0.37359291     0.80200
N632        N  0.94397607  0.22571709  0.34557232    -0.78100
C633        C  0.97028903  0.18503009  0.34376056     0.82600
N634        N  0.00704202  0.16198493  0.37051593    -0.78100
C635        C  0.01781783  0.18089510  0.39872910     0.82700
N636        N  0.99092846  0.22091792  0.39998802    -0.79800
C637        C  0.58437388  0.71986649  0.24723520     0.80200
N638        N  0.56441900  0.76370338  0.25263663    -0.78100
C639        C  0.57858060  0.77623646  0.28262362     0.82600
N640        N  0.61233090  0.74464713  0.30662185    -0.78100
C641        C  0.63198779  0.70122805  0.30124159     0.82700
N642        N  0.61766518  0.68937216  0.27160646    -0.79800
C643        C  0.95765911  0.16775063  0.31242294     0.80200
N644        N  0.92431350  0.19794388  0.28788211    -0.78100
C645        C  0.91065592  0.18605270  0.25838756     0.82600
N646        N  0.93106099  0.14299920  0.25332780    -0.78100
C647        C  0.96490699  0.11179472  0.27748440     0.82700
N648        N  0.97834131  0.12426279  0.30733852    -0.79800
C649        C  0.70713497  0.57848224  0.84396806     0.03100
C650        C  0.67222507  0.61219290  0.82048702    -0.13100
C651        C  0.66707743  0.66640765  0.82699834     0.00600
C652        C  0.69779491  0.68633115  0.85749955    -0.11600
C653        C  0.73305188  0.65252496  0.88124331     0.03100
C654        C  0.73701804  0.59843998  0.87442338    -0.11000
H655        H  0.64928024  0.59607574  0.79709169     0.08700
H656        H  0.69584969  0.72871827  0.86248834     0.06200
H657        H  0.76506449  0.57273295  0.89235546     0.06000
C658        C  0.83609126  0.73872472  0.93510319     0.80200
N659        N  0.84704880  0.72109358  0.96337123    -0.78100
C660        C  0.82105923  0.68060986  0.96567865     0.82600
N661        N  0.78350564  0.65779051  0.93915516    -0.78100
C662        C  0.77177968  0.67667494  0.91070413     0.82700
N663        N  0.79845618  0.71640250  0.90899295    -0.79800
N664        N  0.75329773  0.44902432  0.83868842    -0.27300
N665        N  0.72152612  0.43384335  0.84515203    -0.35200
C666        C  0.69657355  0.47734988  0.84437384     0.01000
C667        C  0.71289439  0.52232242  0.83685631     0.07000
C668        C  0.74922195  0.50310520  0.83368137    -0.06100
H669        H  0.67224374  0.47722960  0.85221848     0.07700
H670        H  0.77357988  0.52732203  0.83067674     0.08900
Cu671      Cu  0.72292362  0.36150874  0.86561271     0.44200
Cu672      Cu  0.80705729  0.39747004  0.84386877     0.42000
Cu673      Cu  0.84824485  0.33522854  0.91749852     0.43900
N674        N  0.75368352  0.34181372  0.91177000    -0.34700
N675        N  0.80048767  0.33602925  0.93161061    -0.29000
C676        C  0.81010575  0.33382467  0.96074774    -0.05100
C677        C  0.76713420  0.33772483  0.95888926     0.07100
C678        C  0.73218622  0.34327132  0.92759644     0.00900
H679        H  0.84576764  0.33159878  0.98173222     0.08600
H680        H  0.69453669  0.35204238  0.91733052     0.07700
N681        N  0.87947986  0.32119528  0.89246236    -0.36200
N682        N  0.86324009  0.34133751  0.86443083    -0.28300
C683        C  0.88786162  0.31850147  0.85326291    -0.03600
C684        C  0.92158473  0.28306790  0.87570910     0.05000
C685        C  0.91520947  0.28610577  0.90016545     0.03100
H686        H  0.88126160  0.32643842  0.83043920     0.08200
H687        H  0.93337683  0.26214371  0.92134126     0.07100
C688        C  0.76095862  0.34875113  0.98460267     0.03100
C689        C  0.76937152  0.40103914  0.99718241    -0.13100
C690        C  0.76423609  0.41356403  0.52222058     0.00600
C691        C  0.74807712  0.37048097  0.53326507    -0.11600
C692        C  0.73712911  0.31826005  0.51938015     0.03100
C693        C  0.74375436  0.30820402  0.99495786    -0.11000
H694        H  0.77968888  0.43146367  0.98677598     0.08700
H695        H  0.74240052  0.37664605  0.55185267     0.06200
H696        H  0.73581014  0.26847933  0.98403405     0.06000
C697        C  0.76831471  0.53867879  0.56859627     0.03100
C698        C  0.75814524  0.48698926  0.55502717    -0.13100
C699        C  0.77230198  0.47169557  0.53460543     0.00600
C700        C  0.79442963  0.51282390  0.52662922    -0.11600
C701        C  0.80331667  0.56565187  0.53953717     0.03100
C702        C  0.79113722  0.57733239  0.56114405    -0.11000
H703        H  0.74024476  0.45894787  0.56158630     0.08700
H704        H  0.80670436  0.50420176  0.01152167     0.06200
H705        H  0.79932666  0.61689015  0.57226470     0.06000
C706        C  0.83169762  0.30826096  0.71389931     0.03100
C707        C  0.86721159  0.27584559  0.73804845    -0.13100
C708        C  0.87376241  0.22153156  0.73236252     0.00600
C709        C  0.84371188  0.20009942  0.70220560    -0.11600
C710        C  0.80784528  0.23238750  0.67793957     0.03100
C711        C  0.80257788  0.28665299  0.68377573    -0.11000
H712        H  0.88957665  0.29300269  0.76122670     0.08700
H713        H  0.84671932  0.15763311  0.69786356     0.06200
H714        H  0.77409123  0.31121862  0.66532493     0.06000
C715        C  0.70736079  0.14259296  0.62466268     0.80200
N716        N  0.74431662  0.16606639  0.65067455    -0.78100
C717        C  0.77022875  0.20656829  0.64876328     0.82600
N718        N  0.75848900  0.22500423  0.62026919    -0.78100
C719        C  0.72175318  0.20108647  0.59388489     0.82700
N720        N  0.69640059  0.15992160  0.59632867    -0.79800
N721        N  0.78143056  0.43662162  0.71677180    -0.27300
N722        N  0.81162453  0.45239198  0.70908374    -0.35200
C723        C  0.83789943  0.40973453  0.71048090     0.01000
C724        C  0.82424529  0.36468941  0.71981507     0.07000
C725        C  0.78792621  0.38301389  0.72328298    -0.06100
H726        H  0.86146724  0.41021947  0.70204282     0.07700
H727        H  0.76523542  0.35828465  0.72760399     0.08900
Cu728      Cu  0.80639677  0.52440042  0.68707083     0.44200
Cu729      Cu  0.72694945  0.48718393  0.71146299     0.42000
Cu730      Cu  0.68064954  0.54813248  0.63616326     0.43900
N731        N  0.77442809  0.54516501  0.64094841    -0.34700
N732        N  0.72744791  0.54903033  0.62116074    -0.29000
C733        C  0.71765335  0.55119503  0.59193325    -0.05100
C734        C  0.76077093  0.54968561  0.59377160     0.07100
C735        C  0.79585689  0.54546038  0.62510365     0.00900
H736        H  0.68192076  0.55202771  0.57095651     0.08600
H737        H  0.83374356  0.53819980  0.63539881     0.07700
N738        N  0.65307936  0.56348530  0.66337033    -0.36200
N739        N  0.67114929  0.54397755  0.69178106    -0.28300
C740        C  0.64868314  0.56801743  0.70415872    -0.03600
C741        C  0.61446051  0.60360535  0.68216381     0.05000
C742        C  0.61829875  0.59935247  0.65668571     0.03100
H743        H  0.65710828  0.56079311  0.72749200     0.08200
H744        H  0.59905083  0.62302363  0.63542551     0.07100
C745        C  0.83441281  0.66382342  0.99725916     0.80200
N746        N  0.86767562  0.69479050  0.52147473    -0.78100
C747        C  0.88136807  0.68367029  0.55109899     0.82600
N748        N  0.86122325  0.64071605  0.55653359    -0.78100
C749        C  0.82777648  0.60884522  0.53260016     0.82700
N750        N  0.81429616  0.62064025  0.50267941    -0.79800
C751        C  0.70794141  0.21841439  0.56232321     0.80200
N752        N  0.67381443  0.18860135  0.53795416    -0.78100
C753        C  0.65903050  0.20079262  0.50826908     0.82600
N754        N  0.67914346  0.24372245  0.50286460    -0.78100
C755        C  0.71376449  0.27451951  0.52687224     0.82700
N756        N  0.72825765  0.26181883  0.55688609    -0.79800
C757        C  0.45943141  0.80610320  0.59459646     0.03100
C758        C  0.48830524  0.78546562  0.62497160    -0.13100
C759        C  0.48284040  0.73169281  0.63143489     0.00600
C760        C  0.44703909  0.69884111  0.60746771    -0.11600
C761        C  0.91731174  0.71913240  0.57682010     0.03100
C762        C  0.92393322  0.77307177  0.57055890    -0.11000
H763        H  0.51674723  0.81040277  0.64318015     0.08700
H764        H  0.44399943  0.65664661  0.61227621     0.06200
H765        H  0.90170810  0.78950341  0.54717873     0.06000
C766        C  0.58409093  0.64340362  0.68524516     0.80200
N767        N  0.54663696  0.66601568  0.65914629    -0.78100
C768        C  0.52066847  0.70664063  0.66084073     0.82600
N769        N  0.53281363  0.72610087  0.68924428    -0.78100
C770        C  0.57004792  0.70300209  0.71577501     0.82700
N771        N  0.59548522  0.66168544  0.71351683    -0.79800
N772        N  0.50994265  0.93457526  0.59221890    -0.27300
N773        N  0.97760365  0.95025034  0.59822010    -0.35200
C774        C  0.95116367  0.90732484  0.59622457     0.01000
C775        C  0.96646222  0.86231831  0.58799106     0.07000
C776        C  0.50405260  0.88087498  0.58590381    -0.06100
H777        H  0.92638915  0.90761214  0.60371360     0.07700
H778        H  0.52774821  0.85624256  0.58246997     0.08900
Cu779      Cu  0.98046338  0.02196070  0.61970293     0.44200
Cu780      Cu  0.56496312  0.98556789  0.59852687     0.42000
Cu781      Cu  0.60619463  0.05222629  0.67164659     0.43900
N782        N  0.01039121  0.04475477  0.66535356    -0.34700
N783        N  0.05694957  0.05246647  0.68517840    -0.29000
C784        C  0.06620407  0.05612872  0.71420448    -0.05100
C785        C  0.02318828  0.05123217  0.71224780     0.07100
C786        C  0.98869163  0.04355773  0.68104355     0.00900
H787        H  0.10169763  0.05983801  0.73521630     0.08600
H788        H  0.95132330  0.03331860  0.67084480     0.07700
N789        N  0.63612091  0.06517271  0.64567852    -0.36200
N790        N  0.61998532  0.04348771  0.61799316    -0.28300
C791        C  0.64367416  0.06626550  0.60611366    -0.03600
C792        C  0.67667454  0.10325308  0.62772234     0.05000
C793        C  0.67084062  0.10116716  0.65242933     0.03100
H794        H  0.63691132  0.05723139  0.58335806     0.08200
H795        H  0.68865924  0.12635361  0.67311896     0.07100
C796        C  0.01674965  0.04000981  0.73785651     0.03100
C797        C  0.02604367  0.98787620  0.75076952    -0.13100
C798        C  0.01648364  0.97376373  0.77361070     0.00600
C799        C  0.99817840  0.01617838  0.78369470    -0.11600
C800        C  0.98797209  0.06874900  0.77021714     0.03100
C801        C  0.99732088  0.07966603  0.74717098    -0.11000
H802        H  0.54387228  0.95999454  0.74403261     0.08700
H803        H  0.99002470  0.00938243  0.80108608     0.06200
H804        H  0.98921813  0.11935862  0.73618123     0.06000
C805        C  0.52579590  0.84952996  0.82247625     0.03100
C806        C  0.51680866  0.90178542  0.80973181    -0.13100
C807        C  0.52620257  0.91583871  0.78680263     0.00600
C808        C  0.54424479  0.87333695  0.77659648    -0.11600
C809        C  0.55432970  0.82073206  0.79001404     0.03100
C810        C  0.54497045  0.80978957  0.81303902    -0.11000
H811        H  0.50346848  0.93097037  0.81886653     0.08700
H812        H  0.55220896  0.88005037  0.75911001     0.06200
H813        H  0.55283527  0.76999344  0.82389860     0.06000
N814        N  0.52960967  0.95072694  0.96724594    -0.27300
N815        N  0.56208295  0.93591899  0.96135589    -0.35200
C816        C  0.58785350  0.97941744  0.96321755     0.01000
C817        C  0.57129556  0.02405273  0.97082309     0.07000
C818        C  0.53392212  0.00462701  0.97287133    -0.06100
H819        H  0.61303734  0.97965654  0.95606057     0.07700
H820        H  0.51010838  0.02846116  0.47587827     0.08900
Cu821      Cu  0.56085644  0.86413846  0.94051499     0.44200
Cu822      Cu  0.47576796  0.89823375  0.96108431     0.42000
Cu823      Cu  0.43701263  0.83112341  0.88861465     0.43900
N824        N  0.53141176  0.84276065  0.89472617    -0.34700
N825        N  0.48498428  0.83444586  0.87472766    -0.29000
C826        C  0.47601537  0.83178641  0.84574666    -0.05100
C827        C  0.51909024  0.83804608  0.84793050     0.07100
C828        C  0.55331653  0.84540847  0.87919730     0.00900
H829        H  0.44067630  0.82767207  0.82464190     0.08600
H830        H  0.59062050  0.85620130  0.88958979     0.07700
N831        N  0.90628471  0.81788464  0.91399913    -0.36200
N832        N  0.92218127  0.83932484  0.94170190    -0.28300
C833        C  0.89913606  0.81547444  0.95371503    -0.03600
C834        C  0.86679279  0.77803930  0.93216622     0.05000
C835        C  0.87231440  0.78090688  0.90735611     0.03100
H836        H  0.90571880  0.82432235  0.97644296     0.08200
H837        H  0.85465854  0.75586374  0.88660711     0.07100
C838        C  0.57814345  0.08043324  0.96460408     0.03500
C839        C  0.61455387  0.11251575  0.98833345    -0.13100
C840        C  0.62136209  0.16649914  0.98234010     0.00600
C841        C  0.59084993  0.18782117  0.95214081    -0.11600
C842        C  0.55434889  0.15556170  0.92818307     0.03100
C843        C  0.04868632  0.10233324  0.93432888    -0.11000
H844        H  0.63798541  0.09538008  0.51168651     0.08700
H845        H  0.59422291  0.23001140  0.94750357     0.06200
H846        H  0.01993958  0.07779221  0.91605225     0.06000
C847        C  0.95328582  0.24409522  0.87351443     0.80200
N848        N  0.94333380  0.22635043  0.84550337    -0.78100
C849        C  0.96960735  0.18562280  0.84369401     0.82600
N850        N  0.00632623  0.16254499  0.87044549    -0.78100
C851        C  0.01710171  0.18145843  0.89865784     0.82700
N852        N  0.99023233  0.22151711  0.89991729    -0.79800
C853        C  0.58384958  0.72071877  0.74731265     0.80200
N854        N  0.56381439  0.76448561  0.75270212    -0.78100
C855        C  0.57798251  0.77703845  0.78269017     0.82600
N856        N  0.61180630  0.74552491  0.80670360    -0.78100
C857        C  0.63153803  0.70217482  0.80132990     0.82700
N858        N  0.61721791  0.69031868  0.77169522    -0.79800
C859        C  0.95694542  0.16835120  0.81235631     0.80200
N860        N  0.92367926  0.19866022  0.78785022    -0.78100
C861        C  0.90994569  0.18679320  0.75834420     0.82600
N862        N  0.93018081  0.14363751  0.75323356    -0.78100
C863        C  0.96395921  0.11231986  0.77735380     0.82700
N864        N  0.97748100  0.12476175  0.80722812    -0.79800
loop_ 
_geom_bond_atom_site_label_1 
_geom_bond_atom_site_label_2 
_geom_bond_distance 
_geom_bond_site_symmetry_2 
_ccdc_geom_bond_type 
C1            C2   1.399       .  A
C1            C6   1.402       .  A
C1           C19   1.468       .  S
C2            C3   1.408       .  A
C2            H7   1.084       .  S
C3            C4   1.406       .  A
C3          C209   1.483       .  S
C4            C5   1.408       .  A
C4            H8   1.084       .  S
C5            C6   1.400       .  A
C5           C14   1.471       .  S
C6            H9   1.084       .  S
C10         C186   1.473       .  S
C10          N11   1.356       .  A
C10          N15   1.351       .  A
N11          C12   1.365       .  A
C12          C97   1.482       .  S
C12          N13   1.365       .  A
N13          C14   1.367       .  A
C14          N15   1.354       .  A
N16          C20   1.348       .  A
N16          N17   1.322       .  A
N16         Cu24   2.088       .  S
N17          C18   1.342       .  A
N17         Cu23   2.052       .  S
C18          C19   1.377       .  A
C18          H21   1.082       .  S
C19          C20   1.387       .  A
C20          H22   1.082       .  S
Cu23         N26   2.054       .  S
Cu24         N34   2.087       .  S
Cu25         N27   2.075       .  S
Cu25         N33   2.074       .  S
N26          C30   1.342       .  A
N26          N27   1.321       .  A
N27          C28   1.345       .  A
C28          C29   1.383       .  A
C28          H31   1.082       .  S
C29          C30   1.378       .  A
C29          C40   1.465       .  S
C30          H32   1.082       .  S
N33          C37   1.342       .  A
N33          N34   1.322       .  A
N34          C35   1.351       .  A
C35          C36   1.388       .  A
C35          H38   1.082       .  S
C36          C37   1.382       .  A
C36         C199   1.475       .  S
C37          H39   1.082       .  S
C40          C41   1.397       .  A
C40          C45   1.391       .  A
C41         C258   1.412       .  A
C41          H46   1.077       .  S
C42          C43   1.436       .  A
C42         C257   1.412   1_554  A
C42          C51   1.527       .  S
C43          C44   1.416       .  A
C43          H47   1.077       .  S
C44         C261   1.401   1_554  A
C44         C107   1.494       .  S
C45         C260   1.400       .  A
C45          H48   1.085       .  S
C49          C50   1.399       .  A
C49          C54   1.394       .  A
C49          C86   1.466       .  S
C50          C51   1.412       .  A
C50          H55   1.078       .  S
C51          C52   1.435       .  A
C52          C53   1.414       .  A
C52         H272   1.077       .  S
C53          C54   1.400       .  A
C53         C101   1.494       .  S
C54          H57   1.084       .  S
H56         C268   1.077       .  S
C58          C59   1.401       .  A
C58          C63   1.402       .  A
C58          C76   1.471       .  S
C59          C60   1.410       .  A
C59          H64   1.084       .  S
C60          C61   1.405       .  A
C60         C213   1.482       .  S
C61          C62   1.406       .  A
C61          H65   1.084       .  S
C62          C63   1.400       .  A
C62          C69   1.469       .  S
C63          H66   1.084       .  S
C67         C144   1.475       .  S
C67          N68   1.352       .  A
C67          N72   1.356       .  A
N68          C69   1.355       .  A
C69          N70   1.365       .  A
N70          C71   1.364       .  A
C71         C103   1.480       .  S
C71          N72   1.366       .  A
N73          C77   1.348       .  A
N73          N74   1.321       .  A
N73         Cu81   2.090       .  S
N74          C75   1.342       .  A
N74         Cu80   2.055       .  S
C75          C76   1.378       .  A
C75          H78   1.082       .  S
C76          C77   1.389       .  A
C77          H79   1.082       .  S
Cu80         N83   2.055       .  S
Cu81         N91   2.090       .  S
Cu82         N84   2.077       .  S
Cu82         N90   2.077       .  S
N83          C87   1.341       .  A
N83          N84   1.321       .  A
N84          C85   1.347       .  A
C85          C86   1.385       .  A
C85          H88   1.082       .  S
C86          C87   1.378       .  A
C87          H89   1.082       .  S
N90          C94   1.342       .  A
N90          N91   1.323       .  A
N91          C92   1.352       .  A
C92          C93   1.389       .  A
C92          H95   1.082       .  S
C93          C94   1.382       .  A
C93         C118   1.475       .  S
C94          H96   1.082       .  S
C97         N314   1.355       .  A
C97         N318   1.369       .  A
N98          C99   1.351       .  A
N98         C313   1.355   1_554  A
C99         C113   1.485       .  S
C99         N100   1.359       .  A
N100        C101   1.365       .  A
C101        N102   1.371       .  A
N102        C313   1.369   1_554  A
C103        N104   1.355       .  A
C103        N108   1.371       .  A
N104        C105   1.350       .  A
C105        C408   1.483   1_554  S
C105        N106   1.357       .  A
N106        C107   1.365       .  A
C107        N108   1.371       .  A
C109        C110   1.402       .  A
C109        C546   1.401       .  A
C109        C559   1.471       .  S
C110        C111   1.399       .  A
C110        H115   1.084   1_655  S
C111        C112   1.407       .  A
C111        C120   1.470   1_655  S
C112        C545   1.406       .  A
C112        H116   1.084       .  S
C113        C114   1.410       .  A
C113        C544   1.406       .  A
C114        C541   1.401       .  A
C114        H117   1.084       .  S
C118        N119   1.351       .  A
C118        N123   1.357       .  A
N119        C120   1.354       .  A
C120        N121   1.366       .  A
N121        C122   1.365       .  A
C122        C205   1.483       .  S
C122        N123   1.367       .  A
N124        C128   1.349       .  A
N124        N557   1.321   1_455  A
N124       Cu132   2.093       .  S
N125        C126   1.342       .  A
N125        N556   1.321       .  A
N125       Cu131   2.055   1_565  S
C126        C127   1.378       .  A
C126        H129   1.082       .  S
C127        C560   1.389       .  A
C127        C541   1.471       .  S
C128        C559   1.389   1_455  A
C128        H130   1.082       .  S
Cu131       N134   2.056       .  S
Cu132       N142   2.093   1_565  S
Cu133       N141   2.074       .  S
Cu133       N567   2.074       .  S
N134        C138   1.342       .  A
N134        N135   1.321       .  A
N135        C136   1.346       .  A
N135       Cu565   2.075       .  S
C136        C137   1.384       .  A
C136        H139   1.082       .  S
C137        C138   1.379       .  A
C137        C148   1.466       .  S
C138        H140   1.082       .  S
N141        C145   1.342       .  A
N141        N142   1.323       .  A
N142        C143   1.352       .  A
C143        C144   1.389       .  A
C143        H146   1.082       .  S
C144        C145   1.381       .  A
C145        H147   1.082       .  S
C148        C149   1.398   1_545  A
C148        C153   1.392       .  A
C149        C150   1.412       .  A
C149        H586   1.076       .  S
C150        C151   1.438   1_565  A
C150        C591   1.531       .  S
C151        C152   1.416       .  A
C151        H155   1.076       .  S
C152        C153   1.401       .  A
C152        C215   1.497       .  S
C153        H156   1.084       .  S
H154        C581   1.076       .  S
C157        C158   1.398       .  A
C157        C162   1.391       .  A
C157        C179   1.465       .  S
C158        C159   1.412       .  A
C158        H163   1.076       .  S
C159        C160   1.439       .  A
C159        C582   1.532       .  S
C160        C161   1.416       .  A
C160        H164   1.076       .  S
C161        C162   1.400       .  A
C161        C207   1.496       .  S
C162        H165   1.085       .  S
N166        C170   1.348   1_565  A
N166        N167   1.321       .  A
N166       Cu174   2.087   1_455  S
N167        C168   1.341       .  A
N167       Cu173   2.053       .  S
C168        C169   1.377   1_565  A
C168        H171   1.082       .  S
C169        C170   1.388       .  A
C169        C190   1.469       .  S
C170        H388   1.082       .  S
H172        C386   1.082       .  S
Cu173       N176   2.055       .  S
Cu174       N616   2.087       .  S
Cu175       N177   2.073       .  S
Cu175       N615   2.073       .  S
N176        C180   1.341       .  A
N176        N177   1.321   1_455  A
N177        C178   1.346       .  A
C178        C179   1.383   1_655  A
C178        H181   1.082       .  S
C179        C180   1.378       .  A
C180        H182   1.082       .  S
N183        C187   1.342       .  A
N183        N184   1.323       .  A
N183       Cu607   2.073       .  S
N184        C185   1.351       .  A
N184       Cu606   2.087       .  S
C185        C186   1.387       .  A
C185        H188   1.082       .  S
C186        C187   1.381       .  A
C187        H189   1.082       .  S
C190        C191   1.399       .  A
C190        C627   1.401       .  A
C191        C192   1.409       .  A
C191        H412   1.084       .  S
C192        C193   1.407       .  A
C192        C321   1.483       .  S
C193        C194   1.407       .  A
C193        H197   1.084       .  S
C194        C627   1.399       .  A
C194        C635   1.469       .  S
C195        C622   1.401       .  A
C195        C626   1.399       .  A
C195        H198   1.084       .  S
H196        C407   1.084   1_554  S
C199        N200   1.356       .  A
C199        N204   1.352       .  A
N200        C201   1.366       .  A
C201        C211   1.482       .  S
C201        N202   1.364       .  A
N202        C203   1.366       .  A
C203        C626   1.469       .  S
C203        N204   1.355       .  A
C205        N206   1.371       .  A
C205        N210   1.354       .  A
N206        C207   1.372       .  A
C207        N208   1.365       .  A
N208        C209   1.357       .  A
C209        N210   1.351       .  A
C211        N212   1.355       .  A
C211        N216   1.371       .  A
N212        C213   1.350       .  A
C213        N214   1.357       .  A
N214        C215   1.365       .  A
C215        N216   1.372       .  A
C217        C218   1.398       .  A
C217        C222   1.402       .  A
C217        C235   1.468       .  S
C218        C219   1.408       .  A
C218        H223   1.084       .  S
C219        C220   1.407       .  A
C219        C425   1.484       .  S
C220        C221   1.409       .  A
C220        H224   1.084       .  S
C221        C222   1.400       .  A
C221        C230   1.471       .  S
C222        H225   1.084       .  S
C226        C402   1.472       .  S
C226        N227   1.356       .  A
C226        N231   1.351       .  A
N227        C228   1.365       .  A
C228        C313   1.482       .  S
C228        N229   1.366       .  A
N229        C230   1.367       .  A
C230        N231   1.355       .  A
N232        C236   1.348       .  A
N232        N233   1.322       .  A
N232       Cu240   2.088       .  S
N233        C234   1.342       .  A
N233       Cu239   2.052       .  S
C234        C235   1.377       .  A
C234        H237   1.082       .  S
C235        C236   1.387       .  A
C236        H238   1.082       .  S
Cu239       N242   2.054       .  S
Cu240       N250   2.087       .  S
Cu241       N243   2.074       .  S
Cu241       N249   2.073       .  S
N242        C246   1.342       .  A
N242        N243   1.321       .  A
N243        C244   1.345       .  A
C244        C245   1.383       .  A
C244        H247   1.082       .  S
C245        C246   1.378       .  A
C245        C256   1.464       .  S
C246        H248   1.082       .  S
N249        C253   1.342       .  A
N249        N250   1.322       .  A
N250        C251   1.351       .  A
C251        C252   1.389       .  A
C251        H254   1.082       .  S
C252        C253   1.381       .  A
C252        C415   1.474       .  S
C253        H255   1.082       .  S
C256        C257   1.397       .  A
C256        C261   1.391       .  A
C257        H262   1.077       .  S
C258        C259   1.436       .  A
C258        C267   1.528       .  S
C259        C260   1.416       .  A
C259        H263   1.077       .  S
C260        C323   1.494       .  S
C261        H264   1.085       .  S
C265        C266   1.399       .  A
C265        C270   1.393       .  A
C265        C302   1.466       .  S
C266        C267   1.412       .  A
C266        H271   1.077       .  S
C267        C268   1.435       .  A
C268        C269   1.414       .  A
C269        C270   1.400       .  A
C269        C317   1.494       .  S
C270        H273   1.084       .  S
C274        C275   1.401       .  A
C274        C279   1.402       .  A
C274        C292   1.470       .  S
C275        C276   1.410       .  A
C275        H280   1.084       .  S
C276        C277   1.405       .  A
C276        C429   1.482       .  S
C277        C278   1.406       .  A
C277        H281   1.084       .  S
C278        C279   1.400       .  A
C278        C285   1.469       .  S
C279        H282   1.084       .  S
C283        C360   1.475       .  S
C283        N284   1.352       .  A
C283        N288   1.356       .  A
N284        C285   1.355       .  A
C285        N286   1.365       .  A
N286        C287   1.364       .  A
C287        C319   1.480       .  S
C287        N288   1.366       .  A
N289        C293   1.348       .  A
N289        N290   1.321       .  A
N289       Cu297   2.089       .  S
N290        C291   1.342       .  A
N290       Cu296   2.055       .  S
C291        C292   1.378       .  A
C291        H294   1.082       .  S
C292        C293   1.388       .  A
C293        H295   1.082       .  S
Cu296       N299   2.055       .  S
Cu297       N307   2.089       .  S
Cu298       N300   2.077       .  S
Cu298       N306   2.078       .  S
N299        C303   1.341       .  A
N299        N300   1.321       .  A
N300        C301   1.347       .  A
C301        C302   1.385       .  A
C301        H304   1.082       .  S
C302        C303   1.378       .  A
C303        H305   1.082       .  S
N306        C310   1.342       .  A
N306        N307   1.323       .  A
N307        C308   1.352       .  A
C308        C309   1.388       .  A
C308        H311   1.082       .  S
C309        C310   1.382       .  A
C309        C334   1.475       .  S
C310        H312   1.082       .  S
N314        C315   1.351       .  A
C315        C329   1.484       .  S
C315        N316   1.359       .  A
N316        C317   1.365       .  A
C317        N318   1.371       .  A
C319        N320   1.355       .  A
C319        N324   1.371       .  A
N320        C321   1.350       .  A
C321        N322   1.357       .  A
N322        C323   1.365       .  A
C323        N324   1.371       .  A
C325        C326   1.402       .  A
C325        C762   1.401       .  A
C325        C775   1.471       .  S
C326        C327   1.399       .  A
C326        H331   1.084   1_655  S
C327        C328   1.407       .  A
C327        C336   1.469   1_655  S
C328        C761   1.406       .  A
C328        H332   1.084       .  S
C329        C760   1.406       .  A
C329        C330   1.410       .  A
C330        C757   1.401       .  A
C330        H333   1.084       .  S
C334        N335   1.351       .  A
C334        N339   1.357       .  A
N335        C336   1.354       .  A
C336        N337   1.366       .  A
N337        C338   1.365       .  A
C338        C421   1.483       .  S
C338        N339   1.367       .  A
N340        C344   1.349       .  A
N340        N773   1.321   1_455  A
N340       Cu348   2.093       .  S
N341        C342   1.342       .  A
N341        N772   1.321       .  A
N341       Cu347   2.054   1_565  S
C342        C343   1.377       .  A
C342        H345   1.082       .  S
C343        C776   1.389       .  A
C343        C757   1.471       .  S
C344        C775   1.389   1_455  A
C344        H346   1.082       .  S
Cu347       N350   2.056       .  S
Cu348       N358   2.092   1_565  S
Cu349       N783   2.074       .  S
Cu349       N357   2.074       .  S
N350        C354   1.342       .  A
N350        N351   1.321       .  A
N351        C352   1.346       .  A
N351       Cu781   2.075       .  S
C352        C353   1.384       .  A
C352        H355   1.082       .  S
C353        C354   1.379       .  A
C353        C364   1.466       .  S
C354        H356   1.082       .  S
N357        C361   1.342       .  A
N357        N358   1.323       .  A
N358        C359   1.352       .  A
C359        C360   1.389       .  A
C359        H362   1.082       .  S
C360        C361   1.381       .  A
C361        H363   1.082       .  S
C364        C365   1.398   1_545  A
C364        C369   1.391       .  A
C365        C366   1.412       .  A
C365        H802   1.076       .  S
C366        C367   1.438   1_565  A
C366        C807   1.531       .  S
C367        C368   1.416       .  A
C367        H371   1.076       .  S
C368        C369   1.401       .  A
C368        C431   1.496       .  S
C369        H372   1.084       .  S
H370        C797   1.076       .  S
C373        C374   1.398       .  A
C373        C378   1.391       .  A
C373        C395   1.464       .  S
C374        C375   1.412       .  A
C374        H379   1.076   1_455  S
C375        C376   1.438       .  A
C375        C798   1.532       .  S
C376        C377   1.416       .  A
C376        H380   1.076       .  S
C377        C378   1.400       .  A
C377        C423   1.496       .  S
C378        H381   1.085       .  S
N382        C386   1.348   1_565  A
N382        N383   1.321       .  A
N382       Cu390   2.087   1_455  S
N383        C384   1.341       .  A
N383       Cu389   2.053       .  S
C384        C385   1.377   1_565  A
C384        H387   1.082       .  S
C385        C386   1.388       .  A
C385        C406   1.468       .  S
Cu389       N392   2.055       .  S
Cu390       N832   2.087       .  S
Cu391       N393   2.072       .  S
Cu391       N831   2.072       .  S
N392        C396   1.341       .  A
N392        N393   1.321   1_455  A
N393        C394   1.346       .  A
C394        C395   1.383   1_655  A
C394        H397   1.082       .  S
C395        C396   1.378       .  A
C396        H398   1.082       .  S
N399        C403   1.342       .  A
N399        N400   1.323       .  A
N399       Cu823   2.073       .  S
N400        C401   1.351       .  A
N400       Cu822   2.087       .  S
C401        C402   1.387       .  A
C401        H404   1.082       .  S
C402        C403   1.381       .  A
C403        H405   1.082       .  S
C406        C407   1.399       .  A
C406        C843   1.401       .  A
C407        C408   1.409       .  A
C408        C409   1.407       .  A
C409        C410   1.407       .  A
C409        H413   1.084       .  S
C410        C843   1.399       .  A
C410        C851   1.469       .  S
C411        C838   1.401       .  A
C411        C842   1.399       .  A
C411        H414   1.084       .  S
C415        N416   1.356       .  A
C415        N420   1.352       .  A
N416        C417   1.366       .  A
C417        C427   1.481       .  S
C417        N418   1.364       .  A
N418        C419   1.366       .  A
C419        C842   1.469       .  S
C419        N420   1.355       .  A
C421        N422   1.371       .  A
C421        N426   1.354       .  A
N422        C423   1.372       .  A
C423        N424   1.366       .  A
N424        C425   1.357       .  A
C425        N426   1.351       .  A
C427        N428   1.355       .  A
C427        N432   1.371       .  A
N428        C429   1.350       .  A
C429        N430   1.357       .  A
N430        C431   1.365       .  A
C431        N432   1.372       .  A
C433        C434   1.398       .  A
C433        C438   1.402       .  A
C433        C451   1.468       .  S
C434        C435   1.408       .  A
C434        H439   1.084       .  S
C435        C436   1.406       .  A
C435        C641   1.483       .  S
C436        C437   1.408       .  A
C436        H440   1.084       .  S
C437        C438   1.400       .  A
C437        C446   1.471       .  S
C438        H441   1.084       .  S
C442        C618   1.473       .  S
C442        N443   1.356       .  A
C442        N447   1.351       .  A
N443        C444   1.365       .  A
C444        C529   1.482       .  S
C444        N445   1.366       .  A
N445        C446   1.367       .  A
C446        N447   1.354       .  A
N448        C452   1.347       .  A
N448        N449   1.322       .  A
N448       Cu456   2.087       .  S
N449        C450   1.342       .  A
N449       Cu455   2.052       .  S
C450        C451   1.377       .  A
C450        H453   1.082       .  S
C451        C452   1.387       .  A
C452        H454   1.082       .  S
Cu455       N458   2.054       .  S
Cu456       N466   2.087       .  S
Cu457       N459   2.074       .  S
Cu457       N465   2.074       .  S
N458        C462   1.342       .  A
N458        N459   1.321       .  A
N459        C460   1.345       .  A
C460        C461   1.383       .  A
C460        H463   1.082       .  S
C461        C462   1.378       .  A
C461        C472   1.465       .  S
C462        H464   1.082       .  S
N465        C469   1.342       .  A
N465        N466   1.322       .  A
N466        C467   1.351       .  A
C467        C468   1.388       .  A
C467        H470   1.082       .  S
C468        C469   1.382       .  A
C468        C631   1.474       .  S
C469        H471   1.082       .  S
C472        C473   1.397       .  A
C472        C477   1.391       .  A
C473        C690   1.412       .  A
C473        H478   1.077       .  S
C474        C689   1.411   1_554  A
C474        C475   1.436       .  A
C474        C483   1.526       .  S
C475        C476   1.416       .  A
C475        H479   1.078       .  S
C476        C693   1.401   1_554  A
C476        C539   1.495       .  S
C477        C692   1.401       .  A
C477        H480   1.085       .  S
C481        C482   1.399       .  A
C481        C486   1.394       .  A
C481        C518   1.466       .  S
C482        C483   1.412       .  A
C482        H487   1.078       .  S
C483        C484   1.435       .  A
C484        C485   1.414       .  A
C484        H704   1.077       .  S
C485        C486   1.400       .  A
C485        C533   1.494       .  S
C486        H489   1.084       .  S
H488        C700   1.077       .  S
C490        C491   1.401       .  A
C490        C495   1.402       .  A
C490        C508   1.471       .  S
C491        C492   1.410       .  A
C491        H496   1.084       .  S
C492        C493   1.405       .  A
C492        C645   1.482       .  S
C493        C494   1.406       .  A
C493        H497   1.084       .  S
C494        C495   1.400       .  A
C494        C501   1.469       .  S
C495        H498   1.084       .  S
C499        C576   1.476       .  S
C499        N500   1.352       .  A
C499        N504   1.356       .  A
N500        C501   1.355       .  A
C501        N502   1.365       .  A
N502        C503   1.364       .  A
C503        C535   1.481       .  S
C503        N504   1.366       .  A
N505        C509   1.348       .  A
N505        N506   1.321       .  A
N505       Cu513   2.090       .  S
N506        C507   1.342       .  A
N506       Cu512   2.055       .  S
C507        C508   1.378       .  A
C507        H510   1.082       .  S
C508        C509   1.389       .  A
C509        H511   1.082       .  S
Cu512       N515   2.054       .  S
Cu513       N523   2.090       .  S
Cu514       N516   2.077       .  S
Cu514       N522   2.077       .  S
N515        C519   1.341       .  A
N515        N516   1.321       .  A
N516        C517   1.347       .  A
C517        C518   1.385       .  A
C517        H520   1.082       .  S
C518        C519   1.378       .  A
C519        H521   1.082       .  S
N522        C526   1.342       .  A
N522        N523   1.323       .  A
N523        C524   1.352       .  A
C524        C525   1.389       .  A
C524        H527   1.082       .  S
C525        C526   1.382       .  A
C525        C550   1.476       .  S
C526        H528   1.082       .  S
C529        N746   1.355       .  A
C529        N750   1.369       .  A
N530        C745   1.355   1_554  A
N530        C531   1.351       .  A
C531        C545   1.485       .  S
C531        N532   1.359       .  A
N532        C533   1.366       .  A
C533        N534   1.371       .  A
N534        C745   1.369   1_554  A
C535        N536   1.355       .  A
C535        N540   1.371       .  A
N536        C537   1.350       .  A
C537        C840   1.483   1_554  S
C537        N538   1.356       .  A
N538        C539   1.365       .  A
C539        N540   1.372       .  A
C541        C542   1.402       .  A
C542        C543   1.399       .  A
C542        H547   1.084       .  S
C543        C544   1.407       .  A
C543        C552   1.469       .  S
C544        H548   1.084       .  S
C545        C546   1.410       .  A
C546        H549   1.084       .  S
C550        N551   1.351       .  A
C550        N555   1.357       .  A
N551        C552   1.354       .  A
C552        N553   1.366       .  A
N553        C554   1.364       .  A
C554        C637   1.482       .  S
C554        N555   1.367       .  A
N556        C560   1.349       .  A
N556       Cu564   2.093       .  S
N557        C558   1.342       .  A
N557       Cu563   2.054   1_565  S
C558        C559   1.377       .  A
C558        H561   1.082       .  S
C560        H562   1.082       .  S
Cu563       N566   2.056   1_655  S
Cu564       N574   2.093   1_565  S
Cu565       N573   2.075       .  S
N566        C570   1.342   1_455  A
N566        N567   1.321       .  A
N567        C568   1.346       .  A
C568        C569   1.384       .  A
C568        H571   1.082       .  S
C569        C570   1.379   1_455  A
C569        C580   1.466       .  S
C570        H572   1.082       .  S
N573        C577   1.342       .  A
N573        N574   1.323       .  A
N574        C575   1.352       .  A
C575        C576   1.389       .  A
C575        H578   1.082       .  S
C576        C577   1.381       .  A
C577        H579   1.082       .  S
C580        C581   1.398   1_545  A
C580        C585   1.391   1_455  A
C581        C582   1.412       .  A
C582        C583   1.439   1_465  A
C583        C584   1.416       .  A
C583        H587   1.076       .  S
C584        C585   1.401       .  A
C584        C647   1.497       .  S
C585        H588   1.085       .  S
C589        C590   1.398       .  A
C589        C594   1.390       .  A
C589        C611   1.465       .  S
C590        C591   1.413       .  A
C590        H595   1.076       .  S
C591        C592   1.439       .  A
C592        C593   1.417       .  A
C592        H596   1.076       .  S
C593        C594   1.400       .  A
C593        C639   1.496       .  S
C594        H597   1.085       .  S
N598        C602   1.348   1_565  A
N598        N599   1.321       .  A
N598       Cu606   2.087       .  S
N599        C600   1.341       .  A
N599       Cu605   2.052       .  S
C600        C601   1.377   1_565  A
C600        H603   1.082       .  S
C601        C602   1.388       .  A
C601        C622   1.468       .  S
C602        H820   1.082       .  S
H604        C818   1.082       .  S
Cu605       N608   2.054       .  S
Cu607       N609   2.073       .  S
N608        C612   1.342       .  A
N608        N609   1.321       .  A
N609        C610   1.346       .  A
C610        C611   1.383       .  A
C610        H613   1.082       .  S
C611        C612   1.378       .  A
C612        H614   1.082       .  S
N615        C619   1.341       .  A
N615        N616   1.323       .  A
N616        C617   1.351       .  A
C617        C618   1.387       .  A
C617        H620   1.082       .  S
C618        C619   1.381       .  A
C619        H621   1.082       .  S
C622        C623   1.399       .  A
C623        C624   1.409       .  A
C623        H844   1.084       .  S
C624        C625   1.407       .  A
C624        C753   1.483       .  S
C625        C626   1.407       .  A
C625        H629   1.084       .  S
C627        H630   1.084       .  S
H628        C839   1.084   1_554  S
C631        N632   1.356       .  A
C631        N636   1.352       .  A
N632        C633   1.366       .  A
C633        C643   1.481       .  S
C633        N634   1.364   1_655  A
N634        C635   1.366       .  A
C635        N636   1.355   1_455  A
C637        N638   1.371       .  A
C637        N642   1.354       .  A
N638        C639   1.372       .  A
C639        N640   1.365       .  A
N640        C641   1.357       .  A
C641        N642   1.350       .  A
C643        N644   1.355       .  A
C643        N648   1.372       .  A
N644        C645   1.350       .  A
C645        N646   1.357       .  A
N646        C647   1.365       .  A
C647        N648   1.372       .  A
C649        C650   1.398       .  A
C649        C654   1.402       .  A
C649        C667   1.468       .  S
C650        C651   1.408       .  A
C650        H655   1.084       .  S
C651        C652   1.407       .  A
C651        C857   1.483       .  S
C652        C653   1.409       .  A
C652        H656   1.084       .  S
C653        C654   1.400       .  A
C653        C662   1.471       .  S
C654        H657   1.084       .  S
C658        C834   1.472       .  S
C658        N659   1.356       .  A
C658        N663   1.351       .  A
N659        C660   1.365       .  A
C660        C745   1.482       .  S
C660        N661   1.366       .  A
N661        C662   1.367       .  A
C662        N663   1.354       .  A
N664        C668   1.347       .  A
N664        N665   1.322       .  A
N664       Cu672   2.087       .  S
N665        C666   1.341       .  A
N665       Cu671   2.052       .  S
C666        C667   1.376       .  A
C666        H669   1.082       .  S
C667        C668   1.387       .  A
C668        H670   1.082       .  S
Cu671       N674   2.054       .  S
Cu672       N682   2.087       .  S
Cu673       N675   2.073       .  S
Cu673       N681   2.073       .  S
N674        C678   1.342       .  A
N674        N675   1.321       .  A
N675        C676   1.345       .  A
C676        C677   1.383       .  A
C676        H679   1.082       .  S
C677        C678   1.378       .  A
C677        C688   1.464       .  S
C678        H680   1.082       .  S
N681        C685   1.342       .  A
N681        N682   1.322       .  A
N682        C683   1.351       .  A
C683        C684   1.389       .  A
C683        H686   1.082       .  S
C684        C685   1.381       .  A
C684        C847   1.474       .  S
C685        H687   1.082       .  S
C688        C689   1.397       .  A
C688        C693   1.391       .  A
C689        H694   1.077       .  S
C690        C691   1.436       .  A
C690        C699   1.528       .  S
C691        C692   1.416       .  A
C691        H695   1.077       .  S
C692        C755   1.495       .  S
C693        H696   1.085       .  S
C697        C698   1.399       .  A
C697        C702   1.393       .  A
C697        C734   1.467       .  S
C698        C699   1.412       .  A
C698        H703   1.078       .  S
C699        C700   1.435       .  A
C700        C701   1.414       .  A
C701        C702   1.400       .  A
C701        C749   1.494       .  S
C702        H705   1.084       .  S
C706        C707   1.401       .  A
C706        C711   1.402       .  A
C706        C724   1.470       .  S
C707        C708   1.410       .  A
C707        H712   1.084       .  S
C708        C709   1.405       .  A
C708        C861   1.482       .  S
C709        C710   1.406       .  A
C709        H713   1.084       .  S
C710        C711   1.400       .  A
C710        C717   1.469       .  S
C711        H714   1.084       .  S
C715        C792   1.475       .  S
C715        N716   1.352       .  A
C715        N720   1.356       .  A
N716        C717   1.355       .  A
C717        N718   1.365       .  A
N718        C719   1.364       .  A
C719        C751   1.480       .  S
C719        N720   1.366       .  A
N721        C725   1.348       .  A
N721        N722   1.321       .  A
N721       Cu729   2.089       .  S
N722        C723   1.342       .  A
N722       Cu728   2.055       .  S
C723        C724   1.378       .  A
C723        H726   1.082       .  S
C724        C725   1.388       .  A
C725        H727   1.082       .  S
Cu728       N731   2.054       .  S
Cu729       N739   2.089       .  S
Cu730       N732   2.078       .  S
Cu730       N738   2.078       .  S
N731        C735   1.341       .  A
N731        N732   1.321       .  A
N732        C733   1.347       .  A
C733        C734   1.385       .  A
C733        H736   1.082       .  S
C734        C735   1.378       .  A
C735        H737   1.082       .  S
N738        C742   1.342       .  A
N738        N739   1.323       .  A
N739        C740   1.352       .  A
C740        C741   1.388       .  A
C740        H743   1.082       .  S
C741        C742   1.382       .  A
C741        C766   1.476       .  S
C742        H744   1.082       .  S
N746        C747   1.352       .  A
C747        C761   1.484       .  S
C747        N748   1.359       .  A
N748        C749   1.365       .  A
C749        N750   1.371       .  A
C751        N752   1.355       .  A
C751        N756   1.371       .  A
N752        C753   1.350       .  A
C753        N754   1.357       .  A
N754        C755   1.365       .  A
C755        N756   1.371       .  A
C757        C758   1.402       .  A
C758        C759   1.399       .  A
C758        H763   1.085       .  S
C759        C760   1.407       .  A
C759        C768   1.469       .  S
C760        H764   1.084       .  S
C761        C762   1.410       .  A
C762        H765   1.084       .  S
C766        N767   1.351       .  A
C766        N771   1.357       .  A
N767        C768   1.354       .  A
C768        N769   1.366       .  A
N769        C770   1.364       .  A
C770        C853   1.482       .  S
C770        N771   1.367       .  A
N772        C776   1.349       .  A
N772       Cu780   2.093       .  S
N773        C774   1.342       .  A
N773       Cu779   2.054   1_565  S
C774        C775   1.377       .  A
C774        H777   1.082       .  S
C776        H778   1.082       .  S
Cu779       N782   2.055   1_655  S
Cu780       N790   2.092   1_565  S
Cu781       N789   2.075       .  S
N782        C786   1.342   1_455  A
N782        N783   1.321       .  A
N783        C784   1.346       .  A
C784        C785   1.383       .  A
C784        H787   1.082       .  S
C785        C786   1.378   1_455  A
C785        C796   1.465       .  S
C786        H788   1.082       .  S
N789        C793   1.342       .  A
N789        N790   1.323       .  A
N790        C791   1.352       .  A
C791        C792   1.389       .  A
C791        H794   1.082       .  S
C792        C793   1.381       .  A
C793        H795   1.082       .  S
C796        C797   1.397   1_545  A
C796        C801   1.391   1_455  A
C797        C798   1.412       .  A
C798        C799   1.439   1_465  A
C799        C800   1.417       .  A
C799        H803   1.076       .  S
C800        C801   1.400       .  A
C800        C863   1.496       .  S
C801        H804   1.085       .  S
C805        C806   1.398       .  A
C805        C810   1.390       .  A
C805        C827   1.464       .  S
C806        C807   1.413       .  A
C806        H811   1.076       .  S
C807        C808   1.439       .  A
C808        C809   1.416       .  A
C808        H812   1.076       .  S
C809        C810   1.400       .  A
C809        C855   1.496       .  S
C810        H813   1.085       .  S
N814        C818   1.348   1_565  A
N814        N815   1.321       .  A
N814       Cu822   2.087       .  S
N815        C816   1.341       .  A
N815       Cu821   2.052       .  S
C816        C817   1.377   1_565  A
C816        H819   1.082       .  S
C817        C818   1.388       .  A
C817        C838   1.468       .  S
Cu821       N824   2.055       .  S
Cu823       N825   2.073       .  S
N824        C828   1.342       .  A
N824        N825   1.321       .  A
N825        C826   1.346       .  A
C826        C827   1.383       .  A
C826        H829   1.082       .  S
C827        C828   1.378       .  A
C828        H830   1.082       .  S
N831        C835   1.341       .  A
N831        N832   1.323       .  A
N832        C833   1.351       .  A
C833        C834   1.387       .  A
C833        H836   1.082       .  S
C834        C835   1.381       .  A
C835        H837   1.082       .  S
C838        C839   1.399       .  A
C839        C840   1.409       .  A
C840        C841   1.407       .  A
C841        C842   1.407       .  A
C841        H845   1.084       .  S
C843        H846   1.084       .  S
C847        N848   1.356       .  A
C847        N852   1.352       .  A
N848        C849   1.365       .  A
C849        C859   1.481       .  S
C849        N850   1.364   1_655  A
N850        C851   1.366       .  A
C851        N852   1.355   1_455  A
C853        N854   1.371       .  A
C853        N858   1.354       .  A
N854        C855   1.372       .  A
C855        N856   1.366       .  A
N856        C857   1.357       .  A
C857        N858   1.350       .  A
C859        N860   1.355       .  A
C859        N864   1.372       .  A
N860        C861   1.350       .  A
C861        N862   1.357       .  A
N862        C863   1.365       .  A
C863        N864   1.372       .  A
