geometry optimzed in LAMMPS
_audit_creation_date              2020-12-01 
_audit_creation_method            'lammps2cif' 
_symmetry_space_group_name_H-M    'P1' 
_symmetry_Int_Tables_number       1 
_symmetry_cell_setting            triclinic 
loop_ 
_symmetry_equiv_pos_as_xyz 
  x,y,z 
_cell_length_a                    34.11094527 
_cell_length_b                    34.292506311771746 
_cell_length_c                    19.175741562760788 
_cell_angle_alpha                 91.36832710397992 
_cell_angle_beta                  90.55711215056124 
_cell_angle_gamma                 93.44092523566289 
loop_ 
_atom_site_label 
_atom_site_type_symbol 
_atom_site_fract_x 
_atom_site_fract_y 
_atom_site_fract_z 
_atom_site_charge 
C1          C  0.17814222  0.20637655  0.86151345    -0.00300
C2          C  0.24689733  0.13890864  0.65902440    -0.00300
C3          C  0.16034935  0.04858190  0.83950127    -0.00300
C4          C  0.08880997  0.11636324  0.64370868    -0.00300
C5          C  0.24771766  0.14489443  0.33894154    -0.00300
C6          C  0.16262701  0.22040043  0.16128719    -0.00300
C7          C  0.07524831  0.13511617  0.32958037    -0.00300
C8          C  0.16517922  0.05875946  0.15230193    -0.00300
O9          O  0.19543702  0.00751950  0.91928255    -0.70800
O10         O  0.19686378  0.26738696  0.08424876    -0.71800
O11         O  0.20087129  0.26010639  0.93495535    -0.60400
O12         O  0.19627341  0.01622580  0.07004857    -0.68800
O13         O  0.13161228  0.00881757  0.07290314    -0.68400
O14         O  0.13629223  0.25246109  0.92463210    -0.59600
O15         O  0.13234099  0.25937382  0.07504095    -0.72100
O16         O  0.13057021  0.00274660  0.92050503    -0.70900
Cu17       Cu  0.19946423  0.30474998  0.00211209     1.04600
Cu18       Cu  0.13035282  0.29739184  0.99793729     1.04300
C19         C  0.16236604  0.01688612  0.89406696     0.95400
C20         C  0.16418880  0.25160477  0.10553387     0.94500
C21         C  0.17061079  0.24236434  0.90696712     0.86700
C22         C  0.16395311  0.02595379  0.09600778     0.93000
O23         O  0.29305166  0.17395492  0.43111303    -0.70200
O24         O  0.04551522  0.15928905  0.58064941    -0.71800
O25         O  0.04261845  0.16591474  0.42855793    -0.60400
O26         O  0.29588923  0.16934630  0.58308926    -0.68800
O27         O  0.28735274  0.10498662  0.57613284    -0.68400
O28         O  0.03127348  0.10220666  0.41514329    -0.59600
O29         O  0.03500715  0.09537406  0.56700016    -0.72100
O30         O  0.28233604  0.10991430  0.42719867    -0.70900
Cu31       Cu  0.00299789  0.16939358  0.50659343     1.04600
Cu32       Cu  0.99200897  0.10106925  0.49630151     1.04300
C33         C  0.27470105  0.14330213  0.40415340     0.95400
C34         C  0.05332377  0.12456178  0.59782431     0.94500
C35         C  0.04868283  0.13418629  0.39498564     0.86700
C36         C  0.27919965  0.13757760  0.60470973     0.93000
C37         C  0.06204673  0.08618688  0.21890216     0.25700
C38         C  0.07217271  0.09326393  0.28992133    -0.22400
C39         C  0.09577298  0.06389996  0.31558789     0.20700
C40         C  0.12243732  0.04595912  0.27067698     0.25700
C41         C  0.12516936  0.05577677  0.19900197    -0.22300
C42         C  0.08750190  0.06568673  0.17453150     0.20600
F43         F  0.07216241  0.04914501  0.11466369    -0.12300
F44         F  0.02426065  0.08808785  0.19855281    -0.14600
F45         F  0.13588905  0.34572206  0.29303594    -0.14600
F46         F  0.09849468  0.05810922  0.38519010    -0.12300
C47         C  0.20087570  0.12334829  0.09497963     0.25700
C48         C  0.16683635  0.09886250  0.11046732    -0.22400
C49         C  0.13313408  0.11606133  0.08506569     0.20700
C50         C  0.13144823  0.15706647  0.08892956     0.25700
C51         C  0.16388798  0.18031091  0.11744899    -0.22300
C52         C  0.19874930  0.16410887  0.09637434     0.20600
F53         F  0.22732858  0.18625955  0.06572197    -0.12300
F54         F  0.23321463  0.10975470  0.06592448    -0.14600
F55         F  0.10328599  0.17303845  0.05135623    -0.14600
F56         F  0.10653111  0.09508143  0.04472631    -0.12300
C57         C  0.08486380  0.20323342  0.17480506     0.25700
C58         C  0.12083430  0.22068600  0.20168045    -0.22400
C59         C  0.11532451  0.23260830  0.27147313     0.20700
C60         C  0.09028483  0.20985333  0.31509588     0.25700
C61         C  0.07032113  0.17459209  0.28827423    -0.22300
C62         C  0.06195302  0.17689543  0.21599874     0.20600
F63         F  0.03014001  0.15790045  0.18653689    -0.12300
F64         F  0.06828786  0.21733692  0.11672876    -0.14600
F65         F  0.09001400  0.21965976  0.38394966    -0.14600
F66         F  0.12048646  0.27104522  0.28827709    -0.12300
C67         C  0.18160884  0.14691630  0.41257951     0.25700
C68         C  0.20281746  0.14215835  0.35084868    -0.22400
C69         C  0.18144381  0.14031287  0.28876702     0.20700
C70         C  0.14261194  0.13912448  0.28607513     0.25700
C71         C  0.11983134  0.13958734  0.34543569    -0.22300
C72         C  0.13965020  0.14553570  0.40974566     0.20600
F73         F  0.11857549  0.15411153  0.46589556    -0.12300
F74         F  0.20146697  0.15799278  0.47113291    -0.14600
F75         F  0.12658242  0.13701354  0.22231432    -0.14600
F76         F  0.19924642  0.14169346  0.22752846    -0.12300
C77         C  0.22986133  0.07036128  0.31773973     0.25700
C78         C  0.25156628  0.10480767  0.29491781    -0.22400
C79         C  0.26318765  0.10102563  0.22445984     0.20700
C80         C  0.24262935  0.07309373  0.17939539     0.25700
C81         C  0.20533125  0.05680942  0.19892741    -0.22300
C82         C  0.20756008  0.04630905  0.26928234     0.20600
F83         F  0.20293445  0.00796428  0.28423658    -0.12300
F84         F  0.22515858  0.06308077  0.38644143    -0.14600
F85         F  0.26100182  0.05839353  0.12293938    -0.14600
F86         F  0.29416005  0.12213004  0.19963378    -0.12300
C87         C  0.20202624  0.23399010  0.28622108     0.25700
C88         C  0.20130863  0.22518638  0.21310514    -0.22400
C89         C  0.23994705  0.21658593  0.19212474     0.20700
C90         C  0.26392397  0.19444207  0.23550266     0.25700
C91         C  0.25247059  0.18699432  0.30451361    -0.22300
C92         C  0.22902486  0.21678778  0.33109015     0.20600
F93         F  0.22711977  0.22389294  0.40083968    -0.12300
F94         F  0.18634661  0.26627445  0.31194168    -0.14600
F95         F  0.30213442  0.19234051  0.21910734    -0.14600
F96         F  0.25733845  0.23594571  0.13868537    -0.12300
C97         C  0.06557789  0.07240885  0.74609183     0.25700
C98         C  0.08243036  0.07439902  0.67846977    -0.22400
C99         C  0.10497872  0.04185901  0.66380707     0.20700
C100        C  0.12344665  0.02310449  0.71971932     0.25700
C101        C  0.12227138  0.03905059  0.78865433    -0.22300
C102        C  0.08477394  0.05290559  0.80007228     0.20600
F103        F  0.06395156  0.04063047  0.85627209    -0.12300
F104        F  0.03496578  0.09409906  0.76224249    -0.14600
F105        F  0.13205242  0.98526423  0.71048254    -0.14600
F106        F  0.10100061  0.02291893  0.60118994    -0.12300
C107        C  0.19129502  0.10530949  0.57535862     0.25700
C108        C  0.20680010  0.13884947  0.61434420    -0.22400
C109        C  0.18245806  0.17071121  0.60628283     0.20700
C110        C  0.14211882  0.16380040  0.59481139     0.25700
C111        C  0.12503757  0.12490115  0.59472769    -0.22300
C112        C  0.15034871  0.09710894  0.56961543     0.20600
F113        F  0.13634957  0.06770980  0.52630102    -0.12300
F114        F  0.21475090  0.08470180  0.53370579    -0.14600
F115        F  0.11924692  0.19484382  0.59292814    -0.14600
F116        F  0.19696053  0.20588973  0.58559574    -0.12300
C117        C  0.20470441  0.03917441  0.72420268     0.25700
C118        C  0.20054296  0.05134358  0.79459101    -0.22400
C119        C  0.23666187  0.07007421  0.81782282     0.20700
C120        C  0.25784834  0.09557964  0.77306927     0.25700
C121        C  0.24479646  0.09936279  0.70333658    -0.22300
C122        C  0.22736655  0.06291302  0.67864629     0.20600
F123        F  0.24106002  0.04547563  0.62046562    -0.12300
F124        F  0.20045246  0.00069336  0.70733038    -0.14600
F125        F  0.29595810  0.10406873  0.78947537    -0.14600
F126        F  0.25740995  0.05390606  0.86923604    -0.12300
C127        C  0.19278411  0.10342896  0.92280565     0.25700
C128        C  0.15890729  0.08839355  0.88600053    -0.22400
C129        C  0.12704696  0.11278933  0.89901076     0.20700
C130        C  0.13428374  0.15271145  0.91712964     0.25700
C131        C  0.17297942  0.17016195  0.91170161    -0.22300
C132        C  0.20206795  0.14396252  0.92740404     0.20600
F133        F  0.23822548  0.15613328  0.95040080    -0.12300
F134        F  0.21653488  0.07910236  0.95430890    -0.14600
F135        F  0.10305212  0.17544431  0.91968640    -0.14600
F136        F  0.08970829  0.09914032  0.90686286    -0.12300
C137        C  0.16141350  0.15752124  0.77080428     0.25700
C138        C  0.14960212  0.19238479  0.80036179    -0.22400
C139        C  0.11202723  0.20436073  0.77938825     0.20700
C140        C  0.08814520  0.18013457  0.73136865     0.25700
C141        C  0.10131723  0.14339772  0.70803428    -0.22300
C142        C  0.13699541  0.13255069  0.73577203     0.20600
F143        F  0.15384535  0.09992557  0.71474548    -0.12300
F144        F  0.19596515  0.14295913  0.78677864    -0.14600
F145        F  0.05361060  0.19274101  0.70805077    -0.14600
F146        F  0.09866806  0.23846703  0.80366712    -0.12300
C147        C  0.27252874  0.17796923  0.77669820     0.25700
C148        C  0.25498836  0.17750135  0.70928385    -0.22400
C149        C  0.23836764  0.21365906  0.69911338     0.20700
C150        C  0.21777300  0.23118326  0.75419228     0.25700
C151        C  0.21863364  0.21489663  0.82159365    -0.22300
C152        C  0.25381373  0.19626048  0.83375657     0.20600
F153        F  0.27528002  0.20632688  0.89203819    -0.12300
F154        F  0.31138740  0.17211835  0.78235582    -0.14600
F155        F  0.19322508  0.25964004  0.74000758    -0.14600
F156        F  0.25070514  0.23600045  0.64513872    -0.12300
C157        C  0.17814488  0.53970987  0.86151407    -0.00300
C158        C  0.24690062  0.47224225  0.65902542    -0.00300
C159        C  0.16035236  0.38191519  0.83950140    -0.00300
C160        C  0.08881342  0.44969664  0.64370867    -0.00300
C161        C  0.24772085  0.47822787  0.33894199    -0.00300
C162        C  0.16262984  0.55373374  0.16128760    -0.00300
C163        C  0.07525147  0.46844963  0.32958139    -0.00300
C164        C  0.16518198  0.39209281  0.15230276    -0.00300
O165        O  0.19543914  0.34085232  0.91928352    -0.70800
O166        O  0.19686601  0.60072119  0.08424954    -0.71800
O167        O  0.20087335  0.59343995  0.93495595    -0.60400
O168        O  0.19627548  0.34955824  0.07004996    -0.68800
O169        O  0.13161417  0.34215199  0.07290333    -0.68400
O170        O  0.13629436  0.58579415  0.92463218    -0.59600
O171        O  0.13234343  0.59270621  0.07504063    -0.72100
O172        O  0.13057234  0.33608088  0.92050560    -0.70900
Cu173      Cu  0.19946554  0.63808378  0.00211211     1.04600
Cu174      Cu  0.13035425  0.63072444  0.99793770     1.04300
C175        C  0.16236853  0.35021949  0.89406741     0.95400
C176        C  0.16419155  0.58493810  0.10553420     0.94500
C177        C  0.17061306  0.57569763  0.90696753     0.86700
C178        C  0.16395524  0.35928709  0.09600877     0.93000
O179        O  0.29305493  0.50728833  0.43111367    -0.70200
O180        O  0.04551854  0.49262240  0.58064950    -0.71800
O181        O  0.04262162  0.49924823  0.42855851    -0.60400
O182        O  0.29589252  0.50267976  0.58309013    -0.68800
O183        O  0.28735585  0.43832012  0.57613377    -0.68400
O184        O  0.03127665  0.43554012  0.41514426    -0.59600
O185        O  0.03501017  0.42870741  0.56700101    -0.72100
O186        O  0.28233909  0.44324775  0.42719940    -0.70900
Cu187      Cu  0.00300112  0.50272705  0.50659405     1.04600
Cu188      Cu  0.99201209  0.43440273  0.49630222     1.04300
C189        C  0.27470418  0.47663581  0.40415406     0.95400
C190        C  0.05332702  0.45789513  0.59782457     0.94500
C191        C  0.04868599  0.46751943  0.39498648     0.86700
C192        C  0.27920284  0.47091087  0.60471069     0.93000
C193        C  0.06204962  0.41952019  0.21890377     0.25700
C194        C  0.07217590  0.42659731  0.28992269    -0.22400
C195        C  0.09577635  0.39723347  0.31558925     0.20700
C196        C  0.12244039  0.37929244  0.27067791     0.25700
C197        C  0.12517219  0.38911025  0.19900295    -0.22300
C198        C  0.08750476  0.39902035  0.17453264     0.20600
F199        F  0.07216501  0.38247868  0.11466495    -0.12300
F200        F  0.02426339  0.42142090  0.19855517    -0.14600
F201        F  0.13588926  0.67905498  0.29303541    -0.14600
F202        F  0.09849829  0.39144282  0.38519153    -0.12300
C203        C  0.20087852  0.45668147  0.09498006     0.25700
C204        C  0.16683906  0.43219581  0.11046806    -0.22400
C205        C  0.13313687  0.44939468  0.08506636     0.20700
C206        C  0.13145105  0.49039981  0.08892999     0.25700
C207        C  0.16389093  0.51364416  0.11744964    -0.22300
C208        C  0.19875217  0.49744204  0.09637513     0.20600
F209        F  0.22733158  0.51959257  0.06572252    -0.12300
F210        F  0.23321737  0.44308778  0.06592484    -0.14600
F211        F  0.10328890  0.50637188  0.05135666    -0.14600
F212        F  0.10653381  0.42841474  0.04472698    -0.12300
C213        C  0.08486671  0.53656654  0.17480577     0.25700
C214        C  0.12083726  0.55401917  0.20168107    -0.22400
C215        C  0.11532736  0.56594161  0.27147359     0.20700
C216        C  0.09028781  0.54318671  0.31509662     0.25700
C217        C  0.07032403  0.50792535  0.28827507    -0.22300
C218        C  0.06195608  0.51022859  0.21599958     0.20600
F219        F  0.03014315  0.49123349  0.18653774    -0.12300
F220        F  0.06829068  0.55067004  0.11672967    -0.14600
F221        F  0.09001674  0.55299343  0.38395014    -0.14600
F222        F  0.12048974  0.60437843  0.28827759    -0.12300
C223        C  0.18161213  0.48024986  0.41258012     0.25700
C224        C  0.20282063  0.47549189  0.35084931    -0.22400
C225        C  0.18144696  0.47364636  0.28876762     0.20700
C226        C  0.14261502  0.47245795  0.28607596     0.25700
C227        C  0.11983455  0.47292087  0.34543648    -0.22300
C228        C  0.13965345  0.47886960  0.40974645     0.20600
F229        F  0.11857882  0.48744600  0.46589609    -0.12300
F230        F  0.20147036  0.49132628  0.47113355    -0.14600
F231        F  0.12658541  0.47034688  0.22231509    -0.14600
F232        F  0.19924955  0.47502684  0.22752909    -0.12300
C233        C  0.22986436  0.40369461  0.31774036     0.25700
C234        C  0.25156934  0.43814099  0.29491820    -0.22400
C235        C  0.26319052  0.43435883  0.22446018     0.20700
C236        C  0.24263214  0.40642692  0.17939583     0.25700
C237        C  0.20533405  0.39014250  0.19892804    -0.22300
C238        C  0.20756291  0.37964244  0.26928312     0.20600
F239        F  0.20293747  0.34129764  0.28423755    -0.12300
F240        F  0.22516180  0.39641414  0.38644214    -0.14600
F241        F  0.26100459  0.39172666  0.12293981    -0.14600
F242        F  0.29416295  0.45546329  0.19963391    -0.12300
C243        C  0.20202931  0.56732353  0.28622143     0.25700
C244        C  0.20131162  0.55851972  0.21310547    -0.22400
C245        C  0.23994997  0.54991936  0.19212475     0.20700
C246        C  0.26392704  0.52777546  0.23550253     0.25700
C247        C  0.25247374  0.52032775  0.30451372    -0.22300
C248        C  0.22902813  0.55012123  0.33109019     0.20600
F249        F  0.22712337  0.55722651  0.40083985    -0.12300
F250        F  0.18634979  0.59960787  0.31194218    -0.14600
F251        F  0.30213744  0.52567378  0.21910693    -0.14600
F252        F  0.25734124  0.56927921  0.13868531    -0.12300
C253        C  0.06558109  0.40574199  0.74609121     0.25700
C254        C  0.08243388  0.40773238  0.67846924    -0.22400
C255        C  0.10498249  0.37519250  0.66380658     0.20700
C256        C  0.12345016  0.35643795  0.71971901     0.25700
C257        C  0.12227455  0.37238402  0.78865395    -0.22300
C258        C  0.08477709  0.38623890  0.80007180     0.20600
F259        F  0.06395464  0.37396355  0.85627145    -0.12300
F260        F  0.03496867  0.42743185  0.76224159    -0.14600
F261        F  0.13205620  0.31859779  0.71048226    -0.14600
F262        F  0.10100467  0.35625244  0.60118933    -0.12300
C263        C  0.19129850  0.43864285  0.57535956     0.25700
C264        C  0.20680336  0.47218282  0.61434507    -0.22400
C265        C  0.18246150  0.50404464  0.60628343     0.20700
C266        C  0.14212229  0.49713381  0.59481185     0.25700
C267        C  0.12504101  0.45823460  0.59472776    -0.22300
C268        C  0.15035224  0.43044248  0.56961552     0.20600
F269        F  0.13635317  0.40104358  0.52630049    -0.12300
F270        F  0.21475445  0.41803504  0.53370689    -0.14600
F271        F  0.11925039  0.52817726  0.59292872    -0.14600
F272        F  0.19696411  0.53922298  0.58559578    -0.12300
C273        C  0.20470799  0.37250765  0.72420351     0.25700
C274        C  0.20054624  0.38467687  0.79459182    -0.22400
C275        C  0.23666503  0.40340766  0.81782379     0.20700
C276        C  0.25785157  0.42891319  0.77307047     0.25700
C277        C  0.24479976  0.43269631  0.70333764    -0.22300
C278        C  0.22737011  0.39624649  0.67864728     0.20600
F279        F  0.24106386  0.37880908  0.62046683    -0.12300
F280        F  0.20045631  0.33402660  0.70733124    -0.14600
F281        F  0.29596120  0.43740269  0.78947707    -0.14600
F282        F  0.25741318  0.38723944  0.86923697    -0.12300
C283        C  0.19278680  0.43676231  0.92280595     0.25700
C284        C  0.15891020  0.42172696  0.88600046    -0.22400
C285        C  0.12704973  0.44612252  0.89901087     0.20700
C286        C  0.13428645  0.48604463  0.91713004     0.25700
C287        C  0.17298209  0.50349526  0.91170231    -0.22300
C288        C  0.20207068  0.47729584  0.92740440     0.20600
F289        F  0.23822826  0.48946654  0.95040114    -0.12300
F290        F  0.21653758  0.41243556  0.95430923    -0.14600
F291        F  0.10305473  0.50877737  0.91968681    -0.14600
F292        F  0.08971113  0.43247316  0.90686306    -0.12300
C293        C  0.16141658  0.49085466  0.77080451     0.25700
C294        C  0.14960495  0.52571803  0.80036226    -0.22400
C295        C  0.11202994  0.53769378  0.77938884     0.20700
C296        C  0.08814806  0.51346754  0.73136923     0.25700
C297        C  0.10132041  0.47673088  0.70803449    -0.22300
C298        C  0.13699869  0.46588399  0.73577217     0.20600
F299        F  0.15384873  0.43325893  0.71474541    -0.12300
F300        F  0.19596822  0.47629266  0.78677918    -0.14600
F301        F  0.05361311  0.52607362  0.70805195    -0.14600
F302        F  0.09867042  0.57179987  0.80366806    -0.12300
C303        C  0.27253176  0.51130281  0.77669935     0.25700
C304        C  0.25499162  0.51083500  0.70928474    -0.22400
C305        C  0.23837055  0.54699260  0.69911414     0.20700
C306        C  0.21777572  0.56451668  0.75419290     0.25700
C307        C  0.21863631  0.54823003  0.82159440    -0.22300
C308        C  0.25381653  0.52959406  0.83375753     0.20600
F309        F  0.27528258  0.53966063  0.89203952    -0.12300
F310        F  0.31139045  0.50545230  0.78235729    -0.14600
F311        F  0.19322763  0.59297338  0.74000794    -0.14600
F312        F  0.25070816  0.56933405  0.64513973    -0.12300
C313        C  0.17814401  0.87304325  0.86151364    -0.00300
C314        C  0.24690019  0.80557552  0.65902520    -0.00300
C315        C  0.16035209  0.71524849  0.83950184    -0.00300
C316        C  0.08881283  0.78302917  0.64370912    -0.00300
C317        C  0.24772105  0.81156132  0.33894125    -0.00300
C318        C  0.16262938  0.88706701  0.16128722    -0.00300
C319        C  0.07525173  0.80178251  0.32958180    -0.00300
C320        C  0.16518207  0.72542598  0.15230273    -0.00300
O321        O  0.19543954  0.67418584  0.91928312    -0.70800
O322        O  0.19686486  0.93405460  0.08424847    -0.71800
O323        O  0.20087197  0.92677394  0.93495480    -0.60400
O324        O  0.19627598  0.68289227  0.07004914    -0.68800
O325        O  0.13161480  0.67548431  0.07290397    -0.68400
O326        O  0.13629299  0.91912691  0.92463185    -0.59600
O327        O  0.13234224  0.92603946  0.07504059    -0.72100
O328        O  0.13057273  0.66941370  0.92050611    -0.70900
Cu329      Cu  0.19946365  0.97141750  0.00211133     1.04600
Cu330      Cu  0.13035238  0.96405742  0.99793706     1.04300
C331        C  0.16236851  0.68355270  0.89406765     0.95400
C332        C  0.16419041  0.91827141  0.10553368     0.94500
C333        C  0.17061199  0.90903108  0.90696678     0.86700
C334        C  0.16395582  0.69262042  0.09600855     0.93000
O335        O  0.29305520  0.84062183  0.43111325    -0.70200
O336        O  0.04551833  0.82595518  0.58064991    -0.71800
O337        O  0.04262193  0.83258119  0.42855889    -0.60400
O338        O  0.29589242  0.83601306  0.58309003    -0.68800
O339        O  0.28735535  0.77165346  0.57613326    -0.68400
O340        O  0.03127664  0.76887313  0.41514435    -0.59600
O341        O  0.03500962  0.76204026  0.56700104    -0.72100
O342        O  0.28233919  0.77658128  0.42719859    -0.70900
Cu343      Cu  0.00300121  0.83606014  0.50659414     1.04600
Cu344      Cu  0.99201180  0.76773589  0.49630208     1.04300
C345        C  0.27470446  0.80996926  0.40415328     0.95400
C346        C  0.05332662  0.79122795  0.59782480     0.94500
C347        C  0.04868624  0.80085254  0.39498679     0.86700
C348        C  0.27920245  0.80424450  0.60471032     0.93000
C349        C  0.06204976  0.75285315  0.21890409     0.25700
C350        C  0.07217611  0.75993028  0.28992302    -0.22400
C351        C  0.09577653  0.73056632  0.31558931     0.20700
C352        C  0.12244047  0.71262536  0.27067778     0.25700
C353        C  0.12517237  0.72244327  0.19900292    -0.22300
C354        C  0.08750479  0.73235325  0.17453286     0.20600
F355        F  0.07216509  0.71581157  0.11466520    -0.12300
F356        F  0.02426346  0.75475365  0.19855570    -0.14600
F357        F  0.13588614  0.01238888  0.29303538    -0.14600
F358        F  0.09849835  0.72477539  0.38519148    -0.12300
C359        C  0.20087830  0.79001484  0.09498013     0.25700
C360        C  0.16683904  0.76552897  0.11046804    -0.22400
C361        C  0.13313658  0.78272768  0.08506636     0.20700
C362        C  0.13145063  0.82373283  0.08892999     0.25700
C363        C  0.16389039  0.84697742  0.11744919    -0.22300
C364        C  0.19875169  0.83077540  0.09637445     0.20600
F365        F  0.22733079  0.85292609  0.06572171    -0.12300
F366        F  0.23321729  0.77642128  0.06592484    -0.14600
F367        F  0.10328828  0.83970475  0.05135671    -0.14600
F368        F  0.10653373  0.76174762  0.04472683    -0.12300
C369        C  0.08486637  0.86989935  0.17480611     0.25700
C370        C  0.12083689  0.88735218  0.20168106    -0.22400
C371        C  0.11532723  0.89927473  0.27147357     0.20700
C372        C  0.09028809  0.87651964  0.31509698     0.25700
C373        C  0.07032433  0.84125830  0.28827564    -0.22300
C374        C  0.06195586  0.84356149  0.21600039     0.20600
F375        F  0.03014287  0.82456627  0.18653912    -0.12300
F376        F  0.06829001  0.88400262  0.11673010    -0.14600
F377        F  0.09001754  0.88632613  0.38395063    -0.14600
F378        F  0.12048922  0.93771164  0.28827727    -0.12300
C379        C  0.18161248  0.81358274  0.41257995     0.25700
C380        C  0.20282090  0.80882518  0.35084897    -0.22400
C381        C  0.18144712  0.80697964  0.28876733     0.20700
C382        C  0.14261518  0.80579096  0.28607602     0.25700
C383        C  0.11983477  0.80625371  0.34543664    -0.22300
C384        C  0.13965381  0.81220210  0.40974662     0.20600
F385        F  0.11857932  0.82077791  0.46589646    -0.12300
F386        F  0.20147085  0.82465851  0.47113360    -0.14600
F387        F  0.12658550  0.80367992  0.22231525    -0.14600
F388        F  0.19924969  0.80836025  0.22752884    -0.12300
C389        C  0.22986468  0.73702800  0.31774019     0.25700
C390        C  0.25156963  0.77147444  0.29491788    -0.22400
C391        C  0.26319077  0.76769228  0.22445969     0.20700
C392        C  0.24263231  0.73976035  0.17939547     0.25700
C393        C  0.20533422  0.72347595  0.19892794    -0.22300
C394        C  0.20756314  0.71297580  0.26928309     0.20600
F395        F  0.20293764  0.67463104  0.28423748    -0.12300
F396        F  0.22516220  0.72974759  0.38644192    -0.14600
F397        F  0.26100454  0.72506011  0.12293928    -0.14600
F398        F  0.29416317  0.78879661  0.19963338    -0.12300
C399        C  0.20202914  0.90065671  0.28622101     0.25700
C400        C  0.20131125  0.89185304  0.21310499    -0.22400
C401        C  0.23994965  0.88325282  0.19212400     0.20700
C402        C  0.26392680  0.86110888  0.23550153     0.25700
C403        C  0.25247382  0.85366113  0.30451286    -0.22300
C404        C  0.22902818  0.88345456  0.33108969     0.20600
F405        F  0.22712334  0.89055968  0.40083928    -0.12300
F406        F  0.18634923  0.93294074  0.31194217    -0.14600
F407        F  0.30213712  0.85900720  0.21910535    -0.14600
F408        F  0.25734065  0.90261256  0.13868421    -0.12300
C409        C  0.06558049  0.73907442  0.74609162     0.25700
C410        C  0.08243329  0.74106490  0.67846981    -0.22400
C411        C  0.10498187  0.70852497  0.66380726     0.20700
C412        C  0.12344995  0.68977075  0.71971961     0.25700
C413        C  0.12227429  0.70571695  0.78865454    -0.22300
C414        C  0.08477667  0.71957152  0.80007226     0.20600
F415        F  0.06395437  0.70729641  0.85627223    -0.12300
F416        F  0.03496784  0.76076402  0.76224170    -0.14600
F417        F  0.13205609  0.65193058  0.71048314    -0.14600
F418        F  0.10100363  0.68958455  0.60119045    -0.12300
C419        C  0.19129800  0.77197559  0.57536003     0.25700
C420        C  0.20680290  0.80551593  0.61434505    -0.22400
C421        C  0.18246078  0.83737748  0.60628359     0.20700
C422        C  0.14212160  0.83046645  0.59481223     0.25700
C423        C  0.12504050  0.79156714  0.59472830    -0.22300
C424        C  0.15035174  0.76377493  0.56961646     0.20600
F425        F  0.13635269  0.73437558  0.52630227    -0.12300
F426        F  0.21475399  0.75136765  0.53370773    -0.14600
F427        F  0.11924956  0.86150979  0.59292918    -0.14600
F428        F  0.19696321  0.87255584  0.58559519    -0.12300
C429        C  0.20470782  0.70584111  0.72420392     0.25700
C430        C  0.20054585  0.71801043  0.79459205    -0.22400
C431        C  0.23666461  0.73674128  0.81782423     0.20700
C432        C  0.25785107  0.76224690  0.77307094     0.25700
C433        C  0.24479965  0.76602980  0.70333786    -0.22300
C434        C  0.22737009  0.72957983  0.67864767     0.20600
F435        F  0.24106420  0.71214228  0.62046771    -0.12300
F436        F  0.20045610  0.66736001  0.70733183    -0.14600
F437        F  0.29596067  0.77073646  0.78947796    -0.14600
F438        F  0.25741268  0.72057319  0.86923762    -0.12300
C439        C  0.19278613  0.77009570  0.92280634     0.25700
C440        C  0.15890949  0.75506016  0.88600096    -0.22400
C441        C  0.12704904  0.77945577  0.89901076     0.20700
C442        C  0.13428567  0.81937795  0.91712985     0.25700
C443        C  0.17298136  0.83682866  0.91170198    -0.22300
C444        C  0.20206993  0.81062925  0.92740418     0.20600
F445        F  0.23822753  0.82279999  0.95040059    -0.12300
F446        F  0.21653688  0.74576912  0.95430973    -0.14600
F447        F  0.10305393  0.84211061  0.91968674    -0.14600
F448        F  0.08971038  0.76580649  0.90686255    -0.12300
C449        C  0.16141585  0.82418770  0.77080471     0.25700
C450        C  0.14960420  0.85905116  0.80036200    -0.22400
C451        C  0.11202912  0.87102675  0.77938847     0.20700
C452        C  0.08814727  0.84680029  0.73136904     0.25700
C453        C  0.10131969  0.81006358  0.70803483    -0.22300
C454        C  0.13699799  0.79921679  0.73577274     0.20600
F455        F  0.15384816  0.76659179  0.71474618    -0.12300
F456        F  0.19596769  0.80962601  0.78677898    -0.14600
F457        F  0.05361243  0.85940635  0.70805114    -0.14600
F458        F  0.09866958  0.90513290  0.80366706    -0.12300
C459        C  0.27253101  0.84463649  0.77669916     0.25700
C460        C  0.25499086  0.84416845  0.70928450    -0.22400
C461        C  0.23836974  0.88032601  0.69911373     0.20700
C462        C  0.21777472  0.89785009  0.75419228     0.25700
C463        C  0.21863549  0.88156360  0.82159389    -0.22300
C464        C  0.25381573  0.86292779  0.83375713     0.20600
F465        F  0.27528166  0.87299435  0.89203915    -0.12300
F466        F  0.31138974  0.83878600  0.78235717    -0.14600
F467        F  0.19322679  0.92630689  0.74000754    -0.14600
F468        F  0.25070696  0.90266735  0.64513894    -0.12300
C469        C  0.51147557  0.20637656  0.86151346    -0.00300
C470        C  0.58023061  0.13890865  0.65902442    -0.00300
C471        C  0.49368266  0.04858191  0.83950132    -0.00300
C472        C  0.42214339  0.11636321  0.64370870    -0.00300
C473        C  0.58105089  0.14489445  0.33894163    -0.00300
C474        C  0.49596032  0.22040043  0.16128724    -0.00300
C475        C  0.40858161  0.13511615  0.32958034    -0.00300
C476        C  0.49851251  0.05875943  0.15230191    -0.00300
O477        O  0.52877036  0.00751951  0.91928247    -0.70800
O478        O  0.53019702  0.26738696  0.08424871    -0.71800
O479        O  0.53420457  0.26010639  0.93495536    -0.60400
O480        O  0.52960679  0.01622580  0.07004859    -0.68800
O481        O  0.46494566  0.00881754  0.07290311    -0.68400
O482        O  0.46962551  0.25246110  0.92463212    -0.59600
O483        O  0.46567427  0.25937382  0.07504098    -0.72100
O484        O  0.46390357  0.00274657  0.92050508    -0.70900
Cu485      Cu  0.53279754  0.30474998  0.00211208     1.04600
Cu486      Cu  0.46368617  0.29739185  0.99793729     1.04300
C487        C  0.49569926  0.01688612  0.89406701     0.95400
C488        C  0.49752213  0.25160477  0.10553389     0.94500
C489        C  0.50394413  0.24236434  0.90696715     0.86700
C490        C  0.49728654  0.02595377  0.09600777     0.93000
O491        O  0.62638512  0.17395490  0.43111291    -0.70200
O492        O  0.37884845  0.15928902  0.58064948    -0.71800
O493        O  0.37595174  0.16591475  0.42855774    -0.60400
O494        O  0.62922258  0.16934627  0.58308940    -0.68800
O495        O  0.62068595  0.10498661  0.57613289    -0.68400
O496        O  0.36460680  0.10220665  0.41514331    -0.59600
O497        O  0.36834044  0.09537405  0.56700023    -0.72100
O498        O  0.61566929  0.10991433  0.42719874    -0.70900
Cu499      Cu  0.33633115  0.16939358  0.50659338     1.04600
Cu500      Cu  0.32534229  0.10106925  0.49630151     1.04300
C501        C  0.60803429  0.14330213  0.40415352     0.95400
C502        C  0.38665709  0.12456179  0.59782424     0.94500
C503        C  0.38201617  0.13418630  0.39498564     0.86700
C504        C  0.61253288  0.13757762  0.60470975     0.93000
C505        C  0.39538018  0.08618688  0.21890222     0.25700
C506        C  0.40550605  0.09326391  0.28992135    -0.22400
C507        C  0.42910638  0.06389997  0.31558794     0.20700
C508        C  0.45577071  0.04595914  0.27067700     0.25700
C509        C  0.45850271  0.05577676  0.19900203    -0.22300
C510        C  0.42083531  0.06568673  0.17453157     0.20600
F511        F  0.40549580  0.04914499  0.11466374    -0.12300
F512        F  0.35759408  0.08808786  0.19855281    -0.14600
F513        F  0.46922244  0.34572208  0.29303596    -0.14600
F514        F  0.43182812  0.05810926  0.38519016    -0.12300
C515        C  0.53420898  0.12334830  0.09497972     0.25700
C516        C  0.50016968  0.09886249  0.11046728    -0.22400
C517        C  0.46646735  0.11606135  0.08506565     0.20700
C518        C  0.46478149  0.15706651  0.08892959     0.25700
C519        C  0.49722125  0.18031089  0.11744914    -0.22300
C520        C  0.53208257  0.16410886  0.09637441     0.20600
F521        F  0.56066186  0.18625952  0.06572191    -0.12300
F522        F  0.56654793  0.10975472  0.06592441    -0.14600
F523        F  0.43661929  0.17303855  0.05135616    -0.14600
F524        F  0.43986441  0.09508145  0.04472632    -0.12300
C525        C  0.41819711  0.20323336  0.17480497     0.25700
C526        C  0.45416759  0.22068599  0.20168042    -0.22400
C527        C  0.44865771  0.23260831  0.27147304     0.20700
C528        C  0.42361815  0.20985327  0.31509584     0.25700
C529        C  0.40365437  0.17459207  0.28827423    -0.22300
C530        C  0.39528628  0.17689540  0.21599872     0.20600
F531        F  0.36347328  0.15790044  0.18653692    -0.12300
F532        F  0.40162115  0.21733690  0.11672876    -0.14600
F533        F  0.42334723  0.21965978  0.38394957    -0.14600
F534        F  0.45381979  0.27104520  0.28827715    -0.12300
C535        C  0.51494211  0.14691631  0.41257956     0.25700
C536        C  0.53615068  0.14215835  0.35084877    -0.22400
C537        C  0.51477713  0.14031286  0.28876704     0.20700
C538        C  0.47594523  0.13912451  0.28607511     0.25700
C539        C  0.45316469  0.13958738  0.34543568    -0.22300
C540        C  0.47298350  0.14553571  0.40974563     0.20600
F541        F  0.45190882  0.15411152  0.46589554    -0.12300
F542        F  0.53480027  0.15799280  0.47113299    -0.14600
F543        F  0.45991571  0.13701355  0.22231435    -0.14600
F544        F  0.53257986  0.14169343  0.22752854    -0.12300
C545        C  0.56319469  0.07036123  0.31773974     0.25700
C546        C  0.58489949  0.10480767  0.29491780    -0.22400
C547        C  0.59652091  0.10102563  0.22445981     0.20700
C548        C  0.57596267  0.07309366  0.17939538     0.25700
C549        C  0.53866454  0.05680941  0.19892743    -0.22300
C550        C  0.54089332  0.04630901  0.26928237     0.20600
F551        F  0.53626778  0.00796422  0.28423658    -0.12300
F552        F  0.55849182  0.06308083  0.38644143    -0.14600
F553        F  0.59433517  0.05839356  0.12293928    -0.14600
F554        F  0.62749334  0.12213007  0.19963375    -0.12300
C555        C  0.53535954  0.23399011  0.28622112     0.25700
C556        C  0.53464194  0.22518638  0.21310522    -0.22400
C557        C  0.57328035  0.21658594  0.19212474     0.20700
C558        C  0.59725728  0.19444201  0.23550262     0.25700
C559        C  0.58580390  0.18699432  0.30451364    -0.22300
C560        C  0.56235813  0.21678773  0.33109018     0.20600
F561        F  0.56045319  0.22389299  0.40083969    -0.12300
F562        F  0.51967990  0.26627448  0.31194171    -0.14600
F563        F  0.63546772  0.19234052  0.21910716    -0.14600
F564        F  0.59067168  0.23594574  0.13868533    -0.12300
C565        C  0.39891124  0.07240884  0.74609181     0.25700
C566        C  0.41576377  0.07439904  0.67846978    -0.22400
C567        C  0.43831205  0.04185895  0.66380712     0.20700
C568        C  0.45678006  0.02310448  0.71971936     0.25700
C569        C  0.45560465  0.03905054  0.78865437    -0.22300
C570        C  0.41810722  0.05290553  0.80007223     0.20600
F571        F  0.39728485  0.04063047  0.85627208    -0.12300
F572        F  0.36829914  0.09409910  0.76224249    -0.14600
F573        F  0.46538575  0.98526424  0.71048258    -0.14600
F574        F  0.43433405  0.02291895  0.60118989    -0.12300
C575        C  0.52462835  0.10530948  0.57535865     0.25700
C576        C  0.54013335  0.13884950  0.61434426    -0.22400
C577        C  0.51579134  0.17071123  0.60628285     0.20700
C578        C  0.47545213  0.16380040  0.59481135     0.25700
C579        C  0.45837095  0.12490112  0.59472771    -0.22300
C580        C  0.48368208  0.09710892  0.56961548     0.20600
F581        F  0.46968288  0.06770981  0.52630101    -0.12300
F582        F  0.54808422  0.08470182  0.53370579    -0.14600
F583        F  0.45258017  0.19484378  0.59292814    -0.14600
F584        F  0.53029376  0.20588977  0.58559576    -0.12300
C585        C  0.53803774  0.03917442  0.72420275     0.25700
C586        C  0.53387632  0.05134357  0.79459111    -0.22400
C587        C  0.56999525  0.07007424  0.81782288     0.20700
C588        C  0.59118170  0.09557965  0.77306928     0.25700
C589        C  0.57812987  0.09936279  0.70333653    -0.22300
C590        C  0.56069982  0.06291304  0.67864633     0.20600
F591        F  0.57439327  0.04547566  0.62046559    -0.12300
F592        F  0.53378579  0.00069338  0.70733039    -0.14600
F593        F  0.62929147  0.10406874  0.78947533    -0.14600
F594        F  0.59074331  0.05390608  0.86923609    -0.12300
C595        C  0.52611739  0.10342894  0.92280570     0.25700
C596        C  0.49224059  0.08839356  0.88600053    -0.22400
C597        C  0.46038034  0.11278938  0.89901083     0.20700
C598        C  0.46761713  0.15271148  0.91712964     0.25700
C599        C  0.50631277  0.17016195  0.91170160    -0.22300
C600        C  0.53540131  0.14396249  0.92740398     0.20600
F601        F  0.57155883  0.15613323  0.95040075    -0.12300
F602        F  0.54986816  0.07910230  0.95430885    -0.14600
F603        F  0.43638548  0.17544435  0.91968642    -0.14600
F604        F  0.42304165  0.09914038  0.90686284    -0.12300
C605        C  0.49474682  0.15752125  0.77080437     0.25700
C606        C  0.48293549  0.19238481  0.80036178    -0.22400
C607        C  0.44536052  0.20436075  0.77938827     0.20700
C608        C  0.42147849  0.18013454  0.73136868     0.25700
C609        C  0.43465059  0.14339773  0.70803425    -0.22300
C610        C  0.47032879  0.13255069  0.73577207     0.20600
F611        F  0.48717867  0.09992556  0.71474544    -0.12300
F612        F  0.52929851  0.14295915  0.78677868    -0.14600
F613        F  0.38694390  0.19274105  0.70805064    -0.14600
F614        F  0.43200137  0.23846701  0.80366717    -0.12300
C615        C  0.60586216  0.17796925  0.77669815     0.25700
C616        C  0.58832178  0.17750137  0.70928379    -0.22400
C617        C  0.57170099  0.21365905  0.69911345     0.20700
C618        C  0.55110633  0.23118323  0.75419229     0.25700
C619        C  0.55196703  0.21489664  0.82159370    -0.22300
C620        C  0.58714711  0.19626043  0.83375653     0.20600
F621        F  0.60861341  0.20632689  0.89203814    -0.12300
F622        F  0.64472079  0.17211833  0.78235572    -0.14600
F623        F  0.52655845  0.25964011  0.74000772    -0.14600
F624        F  0.58403838  0.23600038  0.64513866    -0.12300
C625        C  0.51147819  0.53970988  0.86151405    -0.00300
C626        C  0.58023396  0.47224222  0.65902543    -0.00300
C627        C  0.49368570  0.38191523  0.83950148    -0.00300
C628        C  0.42214663  0.44969666  0.64370872    -0.00300
C629        C  0.58105422  0.47822788  0.33894200    -0.00300
C630        C  0.49596327  0.55373377  0.16128763    -0.00300
C631        C  0.40858474  0.46844963  0.32958143    -0.00300
C632        C  0.49851524  0.39209280  0.15230279    -0.00300
O633        O  0.52877242  0.34085231  0.91928354    -0.70800
O634        O  0.53019934  0.60072118  0.08424948    -0.71800
O635        O  0.53420676  0.59343995  0.93495595    -0.60400
O636        O  0.52960867  0.34955823  0.07004998    -0.68800
O637        O  0.46494739  0.34215199  0.07290330    -0.68400
O638        O  0.46962777  0.58579418  0.92463219    -0.59600
O639        O  0.46567675  0.59270621  0.07504068    -0.72100
O640        O  0.46390558  0.33608091  0.92050554    -0.70900
Cu641      Cu  0.53279884  0.63808376  0.00211212     1.04600
Cu642      Cu  0.46368757  0.63072446  0.99793768     1.04300
C643        C  0.49570162  0.35021950  0.89406746     0.95400
C644        C  0.49752450  0.58493809  0.10553416     0.94500
C645        C  0.50394659  0.57569767  0.90696757     0.86700
C646        C  0.49728853  0.35928711  0.09600880     0.93000
O647        O  0.62638832  0.50728837  0.43111365    -0.70200
O648        O  0.37885183  0.49262241  0.58064959    -0.71800
O649        O  0.37595486  0.49924822  0.42855861    -0.60400
O650        O  0.62922597  0.50267973  0.58309009    -0.68800
O651        O  0.62068922  0.43832008  0.57613392    -0.68400
O652        O  0.36460999  0.43554009  0.41514430    -0.59600
O653        O  0.36834356  0.42870741  0.56700100    -0.72100
O654        O  0.61567255  0.44324778  0.42719953    -0.70900
Cu655      Cu  0.33633443  0.50272705  0.50659408     1.04600
Cu656      Cu  0.32534544  0.43440273  0.49630221     1.04300
C657        C  0.60803765  0.47663581  0.40415403     0.95400
C658        C  0.38666032  0.45789512  0.59782458     0.94500
C659        C  0.38201923  0.46751946  0.39498651     0.86700
C660        C  0.61253622  0.47091088  0.60471068     0.93000
C661        C  0.39538298  0.41952024  0.21890378     0.25700
C662        C  0.40550929  0.42659731  0.28992265    -0.22400
C663        C  0.42910971  0.39723348  0.31558929     0.20700
C664        C  0.45577370  0.37929243  0.27067790     0.25700
C665        C  0.45850553  0.38911026  0.19900302    -0.22300
C666        C  0.42083807  0.39902031  0.17453267     0.20600
F667        F  0.40549832  0.38247866  0.11466501    -0.12300
F668        F  0.35759673  0.42142091  0.19855517    -0.14600
F669        F  0.46922259  0.67905494  0.29303544    -0.14600
F670        F  0.43183153  0.39144276  0.38519155    -0.12300
C671        C  0.53421174  0.45668144  0.09498004     0.25700
C672        C  0.50017241  0.43219581  0.11046809    -0.22400
C673        C  0.46647016  0.44939469  0.08506637     0.20700
C674        C  0.46478447  0.49039982  0.08893010     0.25700
C675        C  0.49722415  0.51364415  0.11744963    -0.22300
C676        C  0.53208555  0.49744203  0.09637507     0.20600
F677        F  0.56066490  0.51959250  0.06572256    -0.12300
F678        F  0.56655065  0.44308772  0.06592486    -0.14600
F679        F  0.43662224  0.50637190  0.05135658    -0.14600
F680        F  0.43986713  0.42841479  0.04472713    -0.12300
C681        C  0.41820010  0.53656655  0.17480579     0.25700
C682        C  0.45417056  0.55401916  0.20168110    -0.22400
C683        C  0.44866074  0.56594166  0.27147367     0.20700
C684        C  0.42362112  0.54318672  0.31509664     0.25700
C685        C  0.40365744  0.50792536  0.28827506    -0.22300
C686        C  0.39528935  0.51022862  0.21599958     0.20600
F687        F  0.36347647  0.49123342  0.18653769    -0.12300
F688        F  0.40162401  0.55067000  0.11672963    -0.14600
F689        F  0.42335015  0.55299337  0.38395023    -0.14600
F690        F  0.45382296  0.60437850  0.28827756    -0.12300
C691        C  0.51494541  0.48024987  0.41258010     0.25700
C692        C  0.53615394  0.47549187  0.35084931    -0.22400
C693        C  0.51478025  0.47364632  0.28876768     0.20700
C694        C  0.47594836  0.47245791  0.28607607     0.25700
C695        C  0.45316782  0.47292085  0.34543656    -0.22300
C696        C  0.47298677  0.47886958  0.40974648     0.20600
F697        F  0.45191221  0.48744600  0.46589616    -0.12300
F698        F  0.53480371  0.49132627  0.47113350    -0.14600
F699        F  0.45991880  0.47034688  0.22231515    -0.14600
F700        F  0.53258289  0.47502681  0.22752908    -0.12300
C701        C  0.56319774  0.40369463  0.31774029     0.25700
C702        C  0.58490268  0.43814104  0.29491814    -0.22400
C703        C  0.59652395  0.43435887  0.22446012     0.20700
C704        C  0.57596548  0.40642699  0.17939575     0.25700
C705        C  0.53866740  0.39014251  0.19892799    -0.22300
C706        C  0.54089628  0.37964243  0.26928309     0.20600
F707        F  0.53627079  0.34129763  0.28423757    -0.12300
F708        F  0.55849527  0.39641413  0.38644207    -0.14600
F709        F  0.59433799  0.39172669  0.12293984    -0.14600
F710        F  0.62749638  0.45546334  0.19963391    -0.12300
C711        C  0.53536263  0.56732351  0.28622145     0.25700
C712        C  0.53464488  0.55851974  0.21310552    -0.22400
C713        C  0.57328326  0.54991937  0.19212476     0.20700
C714        C  0.59726022  0.52777543  0.23550250     0.25700
C715        C  0.58580708  0.52032778  0.30451372    -0.22300
C716        C  0.56236137  0.55012121  0.33109024     0.20600
F717        F  0.56045676  0.55722659  0.40083989    -0.12300
F718        F  0.51968303  0.59960781  0.31194227    -0.14600
F719        F  0.63547066  0.52567381  0.21910683    -0.14600
F720        F  0.59067448  0.56927925  0.13868532    -0.12300
C721        C  0.39891442  0.40574202  0.74609121     0.25700
C722        C  0.41576709  0.40773236  0.67846926    -0.22400
C723        C  0.43831566  0.37519249  0.66380660     0.20700
C724        C  0.45678354  0.35643798  0.71971898     0.25700
C725        C  0.45560787  0.37238402  0.78865400    -0.22300
C726        C  0.41811041  0.38623887  0.80007177     0.20600
F727        F  0.39728789  0.37396357  0.85627138    -0.12300
F728        F  0.36830196  0.42743179  0.76224146    -0.14600
F729        F  0.46538951  0.31859780  0.71048226    -0.14600
F730        F  0.43433794  0.35625243  0.60118941    -0.12300
C731        C  0.52463173  0.43864285  0.57535958     0.25700
C732        C  0.54013667  0.47218284  0.61434505    -0.22400
C733        C  0.51579476  0.50404462  0.60628340     0.20700
C734        C  0.47545553  0.49713383  0.59481179     0.25700
C735        C  0.45837426  0.45823460  0.59472774    -0.22300
C736        C  0.48368545  0.43044250  0.56961555     0.20600
F737        F  0.46968644  0.40104358  0.52630051    -0.12300
F738        F  0.54808773  0.41803505  0.53370687    -0.14600
F739        F  0.45258366  0.52817726  0.59292872    -0.14600
F740        F  0.53029742  0.53922303  0.58559588    -0.12300
C741        C  0.53804127  0.37250767  0.72420360     0.25700
C742        C  0.53387955  0.38467689  0.79459191    -0.22400
C743        C  0.56999841  0.40340764  0.81782390     0.20700
C744        C  0.59118489  0.42891324  0.77307050     0.25700
C745        C  0.57813319  0.43269629  0.70333759    -0.22300
C746        C  0.56070339  0.39624651  0.67864728     0.20600
F747        F  0.57439710  0.37880911  0.62046683    -0.12300
F748        F  0.53378963  0.33402662  0.70733124    -0.14600
F749        F  0.62929452  0.43740267  0.78947698    -0.14600
F750        F  0.59074656  0.38723947  0.86923706    -0.12300
C751        C  0.52612016  0.43676229  0.92280596     0.25700
C752        C  0.49224343  0.42172695  0.88600048    -0.22400
C753        C  0.46038302  0.44612254  0.89901082     0.20700
C754        C  0.46761974  0.48604463  0.91713002     0.25700
C755        C  0.50631543  0.50349528  0.91170228    -0.22300
C756        C  0.53540398  0.47729583  0.92740440     0.20600
F757        F  0.57156157  0.48946652  0.95040105    -0.12300
F758        F  0.54987088  0.41243551  0.95430920    -0.14600
F759        F  0.43638810  0.50877738  0.91968677    -0.14600
F760        F  0.42304438  0.43247315  0.90686304    -0.12300
C761        C  0.49474983  0.49085468  0.77080451     0.25700
C762        C  0.48293824  0.52571806  0.80036222    -0.22400
C763        C  0.44536325  0.53769379  0.77938877     0.20700
C764        C  0.42148131  0.51346754  0.73136926     0.25700
C765        C  0.43465368  0.47673091  0.70803447    -0.22300
C766        C  0.47033193  0.46588404  0.73577219     0.20600
F767        F  0.48718205  0.43325896  0.71474549    -0.12300
F768        F  0.52930153  0.47629270  0.78677917    -0.14600
F769        F  0.38694638  0.52607361  0.70805199    -0.14600
F770        F  0.43200372  0.57179985  0.80366817    -0.12300
C771        C  0.60586511  0.51130286  0.77669933     0.25700
C772        C  0.58832494  0.51083497  0.70928470    -0.22400
C773        C  0.57170397  0.54699262  0.69911418     0.20700
C774        C  0.55110904  0.56451664  0.75419287     0.25700
C775        C  0.55196969  0.54823003  0.82159439    -0.22300
C776        C  0.58714990  0.52959407  0.83375749     0.20600
F777        F  0.60861597  0.53966062  0.89203946    -0.12300
F778        F  0.64472380  0.50545231  0.78235719    -0.14600
F779        F  0.52656093  0.59297330  0.74000795    -0.14600
F780        F  0.58404152  0.56933404  0.64513970    -0.12300
C781        C  0.51147732  0.87304325  0.86151361    -0.00300
C782        C  0.58023362  0.80557553  0.65902519    -0.00300
C783        C  0.49368531  0.71524849  0.83950188    -0.00300
C784        C  0.42214601  0.78302916  0.64370912    -0.00300
C785        C  0.58105450  0.81156129  0.33894124    -0.00300
C786        C  0.49596282  0.88706702  0.16128721    -0.00300
C787        C  0.40858506  0.80178248  0.32958183    -0.00300
C788        C  0.49851536  0.72542598  0.15230267    -0.00300
O789        O  0.52877287  0.67418585  0.91928308    -0.70800
O790        O  0.53019826  0.93405460  0.08424846    -0.71800
O791        O  0.53420535  0.92677393  0.93495480    -0.60400
O792        O  0.52960927  0.68289226  0.07004917    -0.68800
O793        O  0.46494810  0.67548431  0.07290398    -0.68400
O794        O  0.46962640  0.91912695  0.92463189    -0.59600
O795        O  0.46567564  0.92603946  0.07504058    -0.72100
O796        O  0.46390607  0.66941370  0.92050612    -0.70900
Cu797      Cu  0.53279697  0.97141749  0.00211131     1.04600
Cu798      Cu  0.46368574  0.96405743  0.99793707     1.04300
C799        C  0.49570185  0.68355271  0.89406764     0.95400
C800        C  0.49752348  0.91827139  0.10553364     0.94500
C801        C  0.50394520  0.90903107  0.90696674     0.86700
C802        C  0.49728897  0.69262039  0.09600857     0.93000
O803        O  0.62638855  0.84062184  0.43111331    -0.70200
O804        O  0.37885160  0.82595518  0.58064994    -0.71800
O805        O  0.37595517  0.83258119  0.42855893    -0.60400
O806        O  0.62922581  0.83601308  0.58309001    -0.68800
O807        O  0.62068868  0.77165347  0.57613315    -0.68400
O808        O  0.36460995  0.76887312  0.41514439    -0.59600
O809        O  0.36834288  0.76204026  0.56700085    -0.72100
O810        O  0.61567256  0.77658127  0.42719865    -0.70900
Cu811      Cu  0.33633453  0.83606015  0.50659417     1.04600
Cu812      Cu  0.32534515  0.76773588  0.49630205     1.04300
C813        C  0.60803791  0.80996927  0.40415323     0.95400
C814        C  0.38665982  0.79122795  0.59782486     0.94500
C815        C  0.38201953  0.80085254  0.39498682     0.86700
C816        C  0.61253589  0.80424448  0.60471039     0.93000
C817        C  0.39538318  0.75285319  0.21890409     0.25700
C818        C  0.40550946  0.75993025  0.28992305    -0.22400
C819        C  0.42910995  0.73056633  0.31558936     0.20700
C820        C  0.45577392  0.71262536  0.27067780     0.25700
C821        C  0.45850567  0.72244327  0.19900295    -0.22300
C822        C  0.42083818  0.73235327  0.17453286     0.20600
F823        F  0.40549847  0.71581155  0.11466524    -0.12300
F824        F  0.35759687  0.75475364  0.19855563    -0.14600
F825        F  0.46921953  0.01238885  0.29303529    -0.14600
F826        F  0.43183176  0.72477540  0.38519149    -0.12300
C827        C  0.53421161  0.79001483  0.09498008     0.25700
C828        C  0.50017235  0.76552894  0.11046794    -0.22400
C829        C  0.46646991  0.78272767  0.08506628     0.20700
C830        C  0.46478408  0.82373281  0.08892991     0.25700
C831        C  0.49722369  0.84697743  0.11744907    -0.22300
C832        C  0.53208511  0.83077541  0.09637440     0.20600
F833        F  0.56066418  0.85292610  0.06572171    -0.12300
F834        F  0.56655064  0.77642134  0.06592493    -0.14600
F835        F  0.43662167  0.83970462  0.05135675    -0.14600
F836        F  0.43986706  0.76174762  0.04472685    -0.12300
C837        C  0.41819970  0.86989950  0.17480619     0.25700
C838        C  0.45417014  0.88735221  0.20168106    -0.22400
C839        C  0.44866058  0.89927475  0.27147358     0.20700
C840        C  0.42362140  0.87651962  0.31509698     0.25700
C841        C  0.40365767  0.84125829  0.28827566    -0.22300
C842        C  0.39528923  0.84356151  0.21600038     0.20600
F843        F  0.36347628  0.82456627  0.18653903    -0.12300
F844        F  0.40162340  0.88400261  0.11673001    -0.14600
F845        F  0.42335081  0.88632619  0.38395061    -0.14600
F846        F  0.45382257  0.93771162  0.28827725    -0.12300
C847        C  0.51494590  0.81358272  0.41257989     0.25700
C848        C  0.53615429  0.80882516  0.35084893    -0.22400
C849        C  0.51478048  0.80697960  0.28876735     0.20700
C850        C  0.47594858  0.80579091  0.28607605     0.25700
C851        C  0.45316820  0.80625368  0.34543663    -0.22300
C852        C  0.47298725  0.81220210  0.40974659     0.20600
F853        F  0.45191270  0.82077792  0.46589640    -0.12300
F854        F  0.53480424  0.82465851  0.47113360    -0.14600
F855        F  0.45991892  0.80367994  0.22231519    -0.14600
F856        F  0.53258297  0.80836021  0.22752877    -0.12300
C857        C  0.56319795  0.73702801  0.31774025     0.25700
C858        C  0.58490293  0.77147441  0.29491786    -0.22400
C859        C  0.59652408  0.76769222  0.22445972     0.20700
C860        C  0.57596560  0.73976031  0.17939548     0.25700
C861        C  0.53866750  0.72347596  0.19892795    -0.22300
C862        C  0.54089652  0.71297578  0.26928307     0.20600
F863        F  0.53627099  0.67463104  0.28423754    -0.12300
F864        F  0.55849545  0.72974762  0.38644204    -0.14600
F865        F  0.59433787  0.72506010  0.12293925    -0.14600
F866        F  0.62749645  0.78879663  0.19963334    -0.12300
C867        C  0.53536250  0.90065671  0.28622103     0.25700
C868        C  0.53464452  0.89185304  0.21310502    -0.22400
C869        C  0.57328294  0.88325279  0.19212402     0.20700
C870        C  0.59726009  0.86110886  0.23550153     0.25700
C871        C  0.58580720  0.85366111  0.30451286    -0.22300
C872        C  0.56236144  0.88345450  0.33108971     0.20600
F873        F  0.56045675  0.89055973  0.40083933    -0.12300
F874        F  0.51968254  0.93294077  0.31194218    -0.14600
F875        F  0.63547045  0.85900722  0.21910524    -0.14600
F876        F  0.59067389  0.90261261  0.13868425    -0.12300
C877        C  0.39891381  0.73907443  0.74609160     0.25700
C878        C  0.41576652  0.74106487  0.67846975    -0.22400
C879        C  0.43831522  0.70852499  0.66380724     0.20700
C880        C  0.45678329  0.68977076  0.71971966     0.25700
C881        C  0.45560754  0.70571692  0.78865458    -0.22300
C882        C  0.41810992  0.71957151  0.80007225     0.20600
F883        F  0.39728763  0.70729641  0.85627220    -0.12300
F884        F  0.36830114  0.76076396  0.76224161    -0.14600
F885        F  0.46538954  0.65193062  0.71048320    -0.14600
F886        F  0.43433704  0.68958454  0.60119048    -0.12300
C887        C  0.52463131  0.77197558  0.57536011     0.25700
C888        C  0.54013630  0.80551590  0.61434506    -0.22400
C889        C  0.51579413  0.83737747  0.60628355     0.20700
C890        C  0.47545486  0.83046646  0.59481230     0.25700
C891        C  0.45837368  0.79156716  0.59472834    -0.22300
C892        C  0.48368500  0.76377497  0.56961648     0.20600
F893        F  0.46968597  0.73437565  0.52630226    -0.12300
F894        F  0.54808728  0.75136763  0.53370768    -0.14600
F895        F  0.45258287  0.86150985  0.59292919    -0.14600
F896        F  0.53029652  0.87255579  0.58559508    -0.12300
C897        C  0.53804112  0.70584112  0.72420392     0.25700
C898        C  0.53387915  0.71801049  0.79459206    -0.22400
C899        C  0.56999794  0.73674132  0.81782425     0.20700
C900        C  0.59118444  0.76224687  0.77307093     0.25700
C901        C  0.57813297  0.76602980  0.70333784    -0.22300
C902        C  0.56070335  0.72957984  0.67864765     0.20600
F903        F  0.57439749  0.71214230  0.62046759    -0.12300
F904        F  0.53378952  0.66735998  0.70733191    -0.14600
F905        F  0.62929403  0.77073643  0.78947798    -0.14600
F906        F  0.59074603  0.72057319  0.86923760    -0.12300
C907        C  0.52611939  0.77009570  0.92280633     0.25700
C908        C  0.49224276  0.75506013  0.88600113    -0.22400
C909        C  0.46038234  0.77945576  0.89901080     0.20700
C910        C  0.46761898  0.81937792  0.91712983     0.25700
C911        C  0.50631456  0.83682864  0.91170194    -0.22300
C912        C  0.53540316  0.81062926  0.92740425     0.20600
F913        F  0.57156077  0.82280000  0.95040056    -0.12300
F914        F  0.54987019  0.74576916  0.95430975    -0.14600
F915        F  0.43638726  0.84211059  0.91968673    -0.14600
F916        F  0.42304372  0.76580651  0.90686255    -0.12300
C917        C  0.49474914  0.82418772  0.77080471     0.25700
C918        C  0.48293739  0.85905119  0.80036197    -0.22400
C919        C  0.44536238  0.87102677  0.77938849     0.20700
C920        C  0.42148052  0.84680033  0.73136903     0.25700
C921        C  0.43465298  0.81006358  0.70803488    -0.22300
C922        C  0.47033124  0.79921683  0.73577272     0.20600
F923        F  0.48718144  0.76659180  0.71474625    -0.12300
F924        F  0.52930099  0.80962602  0.78677896    -0.14600
F925        F  0.38694569  0.85940633  0.70805120    -0.14600
F926        F  0.43200281  0.90513292  0.80366713    -0.12300
C927        C  0.60586439  0.84463651  0.77669914     0.25700
C928        C  0.58832431  0.84416848  0.70928447    -0.22400
C929        C  0.57170301  0.88032595  0.69911368     0.20700
C930        C  0.55110810  0.89785007  0.75419230     0.25700
C931        C  0.55196872  0.88156351  0.82159384    -0.22300
C932        C  0.58714900  0.86292772  0.83375716     0.20600
F933        F  0.60861495  0.87299434  0.89203919    -0.12300
F934        F  0.64472308  0.83878601  0.78235716    -0.14600
F935        F  0.52656018  0.92630694  0.74000757    -0.14600
F936        F  0.58404028  0.90266734  0.64513898    -0.12300
C937        C  0.84480888  0.20637655  0.86151345    -0.00300
C938        C  0.91356400  0.13890865  0.65902438    -0.00300
C939        C  0.82701602  0.04858190  0.83950127    -0.00300
C940        C  0.75547662  0.11636324  0.64370866    -0.00300
C941        C  0.91438430  0.14489444  0.33894159    -0.00300
C942        C  0.82929371  0.22040042  0.16128722    -0.00300
C943        C  0.74191495  0.13511614  0.32958037    -0.00300
C944        C  0.83184589  0.05875944  0.15230192    -0.00300
O945        O  0.86210368  0.00751950  0.91928255    -0.70800
O946        O  0.86353045  0.26738696  0.08424874    -0.71800
O947        O  0.86753795  0.26010639  0.93495535    -0.60400
O948        O  0.86294007  0.01622580  0.07004857    -0.68800
O949        O  0.79827894  0.00881756  0.07290314    -0.68400
O950        O  0.80295889  0.25246109  0.92463210    -0.59600
O951        O  0.79900766  0.25937381  0.07504096    -0.72100
O952        O  0.79723687  0.00274660  0.92050503    -0.70900
Cu953      Cu  0.86613089  0.30474998  0.00211209     1.04600
Cu954      Cu  0.79701948  0.29739184  0.99793729     1.04300
C955        C  0.82903270  0.01688612  0.89406696     0.95400
C956        C  0.83085549  0.25160476  0.10553386     0.94500
C957        C  0.83727745  0.24236434  0.90696712     0.86700
C958        C  0.83061977  0.02595378  0.09600778     0.93000
O959        O  0.95971844  0.17395491  0.43111296    -0.70200
O960        O  0.71218191  0.15928905  0.58064935    -0.71800
O961        O  0.70928509  0.16591474  0.42855790    -0.60400
O962        O  0.96255596  0.16934629  0.58308926    -0.68800
O963        O  0.95401941  0.10498662  0.57613283    -0.68400
O964        O  0.69794005  0.10220667  0.41514322    -0.59600
O965        O  0.70167378  0.09537406  0.56700015    -0.72100
O966        O  0.94900269  0.10991431  0.42719872    -0.70900
Cu967      Cu  0.66966457  0.16939358  0.50659344     1.04600
Cu968      Cu  0.65867561  0.10106925  0.49630152     1.04300
C969        C  0.94136775  0.14330214  0.40415341     0.95400
C970        C  0.71999042  0.12456178  0.59782428     0.94500
C971        C  0.71534942  0.13418628  0.39498558     0.86700
C972        C  0.94586634  0.13757760  0.60470971     0.93000
C973        C  0.72871339  0.08618685  0.21890220     0.25700
C974        C  0.73883939  0.09326389  0.28992135    -0.22400
C975        C  0.76243972  0.06389997  0.31558789     0.20700
C976        C  0.78910401  0.04595910  0.27067693     0.25700
C977        C  0.79183603  0.05577676  0.19900195    -0.22300
C978        C  0.75416856  0.06568673  0.17453149     0.20600
F979        F  0.73882906  0.04914502  0.11466369    -0.12300
F980        F  0.69092731  0.08808786  0.19855285    -0.14600
F981        F  0.80255570  0.34572208  0.29303593    -0.14600
F982        F  0.76516151  0.05810930  0.38519011    -0.12300
C983        C  0.86754239  0.12334827  0.09497964     0.25700
C984        C  0.83350303  0.09886249  0.11046731    -0.22400
C985        C  0.79980076  0.11606134  0.08506575     0.20700
C986        C  0.79811492  0.15706649  0.08892962     0.25700
C987        C  0.83055469  0.18031089  0.11744912    -0.22300
C988        C  0.86541600  0.16410885  0.09637437     0.20600
F989        F  0.89399527  0.18625955  0.06572194    -0.12300
F990        F  0.89988132  0.10975469  0.06592446    -0.14600
F991        F  0.76995272  0.17303853  0.05135615    -0.14600
F992        F  0.77319780  0.09508146  0.04472633    -0.12300
C993        C  0.75153047  0.20323343  0.17480506     0.25700
C994        C  0.78750098  0.22068596  0.20168046    -0.22400
C995        C  0.78199109  0.23260830  0.27147307     0.20700
C996        C  0.75695152  0.20985329  0.31509590     0.25700
C997        C  0.73698782  0.17459207  0.28827423    -0.22300
C998        C  0.72861968  0.17689545  0.21599877     0.20600
F999        F  0.69680669  0.15790048  0.18653692    -0.12300
F1000       F  0.73495457  0.21733689  0.11672870    -0.14600
F1001       F  0.75668068  0.21965978  0.38394967    -0.14600
F1002       F  0.78715313  0.27104518  0.28827710    -0.12300
C1003       C  0.84827546  0.14691632  0.41257955     0.25700
C1004       C  0.86948409  0.14215836  0.35084875    -0.22400
C1005       C  0.84811045  0.14031288  0.28876707     0.20700
C1006       C  0.80927858  0.13912447  0.28607516     0.25700
C1007       C  0.78649797  0.13958733  0.34543570    -0.22300
C1008       C  0.80631682  0.14553572  0.40974567     0.20600
F1009       F  0.78524214  0.15411152  0.46589555    -0.12300
F1010       F  0.86813358  0.15799278  0.47113296    -0.14600
F1011       F  0.79324908  0.13701353  0.22231435    -0.14600
F1012       F  0.86591308  0.14169346  0.22752852    -0.12300
C1013       C  0.89652799  0.07036128  0.31773974     0.25700
C1014       C  0.91823293  0.10480768  0.29491784    -0.22400
C1015       C  0.92985431  0.10102563  0.22445986     0.20700
C1016       C  0.90929601  0.07309373  0.17939540     0.25700
C1017       C  0.87199791  0.05680941  0.19892742    -0.22300
C1018       C  0.87422674  0.04630905  0.26928234     0.20600
F1019       F  0.86960112  0.00796428  0.28423658    -0.12300
F1020       F  0.89182524  0.06308077  0.38644143    -0.14600
F1021       F  0.92766849  0.05839353  0.12293939    -0.14600
F1022       F  0.96082671  0.12213005  0.19963378    -0.12300
C1023       C  0.86869292  0.23399011  0.28622108     0.25700
C1024       C  0.86797532  0.22518640  0.21310516    -0.22400
C1025       C  0.90661373  0.21658593  0.19212474     0.20700
C1026       C  0.93059064  0.19444206  0.23550266     0.25700
C1027       C  0.91913725  0.18699432  0.30451363    -0.22300
C1028       C  0.89569152  0.21678778  0.33109015     0.20600
F1029       F  0.89378644  0.22389294  0.40083968    -0.12300
F1030       F  0.85301329  0.26627445  0.31194168    -0.14600
F1031       F  0.96880109  0.19234050  0.21910734    -0.14600
F1032       F  0.92400512  0.23594571  0.13868537    -0.12300
C1033       C  0.73224456  0.07240885  0.74609183     0.25700
C1034       C  0.74909702  0.07439902  0.67846976    -0.22400
C1035       C  0.77164538  0.04185901  0.66380707     0.20700
C1036       C  0.79011331  0.02310449  0.71971931     0.25700
C1037       C  0.78893804  0.03905059  0.78865433    -0.22300
C1038       C  0.75144060  0.05290559  0.80007228     0.20600
F1039       F  0.73061822  0.04063047  0.85627209    -0.12300
F1040       F  0.70163245  0.09409906  0.76224249    -0.14600
F1041       F  0.79871908  0.98526423  0.71048254    -0.14600
F1042       F  0.76766727  0.02291893  0.60118993    -0.12300
C1043       C  0.85796168  0.10530949  0.57535862     0.25700
C1044       C  0.87346676  0.13884947  0.61434420    -0.22400
C1045       C  0.84912472  0.17071121  0.60628282     0.20700
C1046       C  0.80878547  0.16380040  0.59481135     0.25700
C1047       C  0.79170423  0.12490114  0.59472767    -0.22300
C1048       C  0.81701537  0.09710894  0.56961542     0.20600
F1049       F  0.80301623  0.06770980  0.52630102    -0.12300
F1050       F  0.88141756  0.08470180  0.53370579    -0.14600
F1051       F  0.78591358  0.19484382  0.59292814    -0.14600
F1052       F  0.86362719  0.20588973  0.58559575    -0.12300
C1053       C  0.87137108  0.03917441  0.72420267     0.25700
C1054       C  0.86720962  0.05134358  0.79459101    -0.22400
C1055       C  0.90332853  0.07007421  0.81782281     0.20700
C1056       C  0.92451500  0.09557964  0.77306927     0.25700
C1057       C  0.91146313  0.09936280  0.70333657    -0.22300
C1058       C  0.89403322  0.06291302  0.67864629     0.20600
F1059       F  0.90772668  0.04547563  0.62046562    -0.12300
F1060       F  0.86711912  0.00069336  0.70733038    -0.14600
F1061       F  0.96262476  0.10406874  0.78947538    -0.14600
F1062       F  0.92407662  0.05390606  0.86923604    -0.12300
C1063       C  0.85945077  0.10342896  0.92280565     0.25700
C1064       C  0.82557395  0.08839355  0.88600053    -0.22400
C1065       C  0.79371362  0.11278933  0.89901076     0.20700
C1066       C  0.80095040  0.15271145  0.91712963     0.25700
C1067       C  0.83964608  0.17016195  0.91170160    -0.22300
C1068       C  0.86873461  0.14396252  0.92740404     0.20600
F1069       F  0.90489214  0.15613328  0.95040080    -0.12300
F1070       F  0.88320154  0.07910236  0.95430890    -0.14600
F1071       F  0.76971878  0.17544431  0.91968638    -0.14600
F1072       F  0.75637495  0.09914032  0.90686286    -0.12300
C1073       C  0.82808016  0.15752124  0.77080428     0.25700
C1074       C  0.81626878  0.19238479  0.80036178    -0.22400
C1075       C  0.77869389  0.20436073  0.77938824     0.20700
C1076       C  0.75481186  0.18013457  0.73136865     0.25700
C1077       C  0.76798389  0.14339772  0.70803425    -0.22300
C1078       C  0.80366207  0.13255069  0.73577202     0.20600
F1079       F  0.82051201  0.09992557  0.71474547    -0.12300
F1080       F  0.86263181  0.14295913  0.78677864    -0.14600
F1081       F  0.72027727  0.19274101  0.70805077    -0.14600
F1082       F  0.76533472  0.23846703  0.80366712    -0.12300
C1083       C  0.93919540  0.17796923  0.77669820     0.25700
C1084       C  0.92165502  0.17750135  0.70928384    -0.22400
C1085       C  0.90503430  0.21365907  0.69911338     0.20700
C1086       C  0.88443967  0.23118326  0.75419228     0.25700
C1087       C  0.88530031  0.21489663  0.82159365    -0.22300
C1088       C  0.92048039  0.19626048  0.83375656     0.20600
F1089       F  0.94194669  0.20632688  0.89203819    -0.12300
F1090       F  0.97805406  0.17211835  0.78235582    -0.14600
F1091       F  0.85989174  0.25964004  0.74000758    -0.14600
F1092       F  0.91737180  0.23600045  0.64513872    -0.12300
C1093       C  0.84481155  0.53970988  0.86151406    -0.00300
C1094       C  0.91356736  0.47224225  0.65902545    -0.00300
C1095       C  0.82701904  0.38191520  0.83950139    -0.00300
C1096       C  0.75548008  0.44969666  0.64370870    -0.00300
C1097       C  0.91438752  0.47822787  0.33894202    -0.00300
C1098       C  0.82929655  0.55373374  0.16128761    -0.00300
C1099       C  0.74191814  0.46844963  0.32958138    -0.00300
C1100       C  0.83184863  0.39209281  0.15230274    -0.00300
O1101       O  0.86210581  0.34085232  0.91928353    -0.70800
O1102       O  0.86353265  0.60072118  0.08424953    -0.71800
O1103       O  0.86754003  0.59343996  0.93495595    -0.60400
O1104       O  0.86294213  0.34955825  0.07004997    -0.68800
O1105       O  0.79828082  0.34215199  0.07290333    -0.68400
O1106       O  0.80296103  0.58579414  0.92463218    -0.59600
O1107       O  0.79901008  0.59270620  0.07504062    -0.72100
O1108       O  0.79723900  0.33608089  0.92050560    -0.70900
Cu1109     Cu  0.86613222  0.63808378  0.00211211     1.04600
Cu1110     Cu  0.79702093  0.63072444  0.99793768     1.04300
C1111       C  0.82903521  0.35021949  0.89406741     0.95400
C1112       C  0.83085796  0.58493809  0.10553417     0.94500
C1113       C  0.83727974  0.57569763  0.90696754     0.86700
C1114       C  0.83062190  0.35928710  0.09600877     0.93000
O1115       O  0.95972164  0.50728833  0.43111369    -0.70200
O1116       O  0.71218518  0.49262240  0.58064956    -0.71800
O1117       O  0.70928832  0.49924822  0.42855852    -0.60400
O1118       O  0.96255929  0.50267976  0.58309019    -0.68800
O1119       O  0.95402251  0.43832012  0.57613373    -0.68400
O1120       O  0.69794334  0.43554012  0.41514424    -0.59600
O1121       O  0.70167696  0.42870741  0.56700090    -0.72100
O1122       O  0.94900578  0.44324774  0.42719942    -0.70900
Cu1123     Cu  0.66966780  0.50272705  0.50659400     1.04600
Cu1124     Cu  0.65867880  0.43440273  0.49630230     1.04300
C1125       C  0.94137087  0.47663581  0.40415409     0.95400
C1126       C  0.71999372  0.45789512  0.59782458     0.94500
C1127       C  0.71535268  0.46751945  0.39498647     0.86700
C1128       C  0.94586958  0.47091087  0.60471069     0.93000
C1129       C  0.72871635  0.41952021  0.21890379     0.25700
C1130       C  0.73884256  0.42659731  0.28992268    -0.22400
C1131       C  0.76244299  0.39723346  0.31558925     0.20700
C1132       C  0.78910705  0.37929244  0.27067789     0.25700
C1133       C  0.79183883  0.38911025  0.19900296    -0.22300
C1134       C  0.75417144  0.39902034  0.17453265     0.20600
F1135       F  0.73883164  0.38247868  0.11466494    -0.12300
F1136       F  0.69093010  0.42142088  0.19855521    -0.14600
F1137       F  0.80255592  0.67905498  0.29303541    -0.14600
F1138       F  0.76516495  0.39144282  0.38519155    -0.12300
C1139       C  0.86754517  0.45668146  0.09498006     0.25700
C1140       C  0.83350574  0.43219581  0.11046806    -0.22400
C1141       C  0.79980351  0.44939467  0.08506635     0.20700
C1142       C  0.79811774  0.49039981  0.08893001     0.25700
C1143       C  0.83055756  0.51364416  0.11744964    -0.22300
C1144       C  0.86541886  0.49744204  0.09637512     0.20600
F1145       F  0.89399824  0.51959256  0.06572252    -0.12300
F1146       F  0.89988404  0.44308777  0.06592484    -0.14600
F1147       F  0.76995556  0.50637188  0.05135666    -0.14600
F1148       F  0.77320048  0.42841474  0.04472699    -0.12300
C1149       C  0.75153340  0.53656656  0.17480577     0.25700
C1150       C  0.78750389  0.55401916  0.20168107    -0.22400
C1151       C  0.78199404  0.56594163  0.27147359     0.20700
C1152       C  0.75695447  0.54318670  0.31509661     0.25700
C1153       C  0.73699070  0.50792536  0.28827506    -0.22300
C1154       C  0.72862274  0.51022859  0.21599956     0.20600
F1155       F  0.69680982  0.49123350  0.18653774    -0.12300
F1156       F  0.73495734  0.55067005  0.11672967    -0.14600
F1157       F  0.75668340  0.55299343  0.38395013    -0.14600
F1158       F  0.78715641  0.60437843  0.28827759    -0.12300
C1159       C  0.84827878  0.48024986  0.41258012     0.25700
C1160       C  0.86948730  0.47549189  0.35084932    -0.22400
C1161       C  0.84811362  0.47364636  0.28876762     0.20700
C1162       C  0.80928168  0.47245795  0.28607596     0.25700
C1163       C  0.78650121  0.47292087  0.34543648    -0.22300
C1164       C  0.80632011  0.47886959  0.40974645     0.20600
F1165       F  0.78524548  0.48744600  0.46589609    -0.12300
F1166       F  0.86813702  0.49132628  0.47113355    -0.14600
F1167       F  0.79325206  0.47034687  0.22231509    -0.14600
F1168       F  0.86591621  0.47502684  0.22752910    -0.12300
C1169       C  0.89653102  0.40369461  0.31774036     0.25700
C1170       C  0.91823601  0.43814100  0.29491821    -0.22400
C1171       C  0.92985718  0.43435883  0.22446018     0.20700
C1172       C  0.90929879  0.40642692  0.17939584     0.25700
C1173       C  0.87200071  0.39014251  0.19892805    -0.22300
C1174       C  0.87422956  0.37964244  0.26928311     0.20600
F1175       F  0.86960413  0.34129764  0.28423755    -0.12300
F1176       F  0.89182846  0.39641414  0.38644214    -0.14600
F1177       F  0.92767125  0.39172666  0.12293982    -0.14600
F1178       F  0.96082961  0.45546330  0.19963391    -0.12300
C1179       C  0.86869599  0.56732352  0.28622143     0.25700
C1180       C  0.86797825  0.55851973  0.21310547    -0.22400
C1181       C  0.90661666  0.54991935  0.19212475     0.20700
C1182       C  0.93059369  0.52777546  0.23550255     0.25700
C1183       C  0.91914041  0.52032775  0.30451373    -0.22300
C1184       C  0.89569478  0.55012124  0.33109020     0.20600
F1185       F  0.89379004  0.55722651  0.40083986    -0.12300
F1186       F  0.85301645  0.59960786  0.31194218    -0.14600
F1187       F  0.96880411  0.52567379  0.21910694    -0.14600
F1188       F  0.92400791  0.56927921  0.13868532    -0.12300
C1189       C  0.73224775  0.40574200  0.74609121     0.25700
C1190       C  0.74910056  0.40773240  0.67846926    -0.22400
C1191       C  0.77164915  0.37519251  0.66380658     0.20700
C1192       C  0.79011683  0.35643795  0.71971901     0.25700
C1193       C  0.78894123  0.37238402  0.78865395    -0.22300
C1194       C  0.75144376  0.38623890  0.80007180     0.20600
F1195       F  0.73062130  0.37396355  0.85627145    -0.12300
F1196       F  0.70163532  0.42743185  0.76224159    -0.14600
F1197       F  0.79872286  0.31859779  0.71048226    -0.14600
F1198       F  0.76767133  0.35625244  0.60118933    -0.12300
C1199       C  0.85796517  0.43864286  0.57535958     0.25700
C1200       C  0.87347005  0.47218282  0.61434511    -0.22400
C1201       C  0.84912817  0.50404462  0.60628342     0.20700
C1202       C  0.80878896  0.49713381  0.59481181     0.25700
C1203       C  0.79170767  0.45823460  0.59472774    -0.22300
C1204       C  0.81701890  0.43044249  0.56961552     0.20600
F1205       F  0.80301982  0.40104357  0.52630047    -0.12300
F1206       F  0.88142110  0.41803504  0.53370689    -0.14600
F1207       F  0.78591703  0.52817727  0.59292871    -0.14600
F1208       F  0.86363076  0.53922298  0.58559578    -0.12300
C1209       C  0.87137469  0.37250768  0.72420353     0.25700
C1210       C  0.86721293  0.38467691  0.79459185    -0.22400
C1211       C  0.90333175  0.40340766  0.81782380     0.20700
C1212       C  0.92451830  0.42891315  0.77307041     0.25700
C1213       C  0.91146650  0.43269631  0.70333760    -0.22300
C1214       C  0.89403679  0.39624652  0.67864729     0.20600
F1215       F  0.90773051  0.37880909  0.62046687    -0.12300
F1216       F  0.86712297  0.33402663  0.70733126    -0.14600
F1217       F  0.96262788  0.43740263  0.78947696    -0.14600
F1218       F  0.92407987  0.38723944  0.86923702    -0.12300
C1219       C  0.85945347  0.43676230  0.92280595     0.25700
C1220       C  0.82557687  0.42172696  0.88600047    -0.22400
C1221       C  0.79371640  0.44612252  0.89901086     0.20700
C1222       C  0.80095312  0.48604463  0.91713004     0.25700
C1223       C  0.83964875  0.50349527  0.91170232    -0.22300
C1224       C  0.86873734  0.47729583  0.92740441     0.20600
F1225       F  0.90489493  0.48946654  0.95040112    -0.12300
F1226       F  0.88320424  0.41243556  0.95430922    -0.14600
F1227       F  0.76972140  0.50877737  0.91968680    -0.14600
F1228       F  0.75637779  0.43247316  0.90686306    -0.12300
C1229       C  0.82808328  0.49085464  0.77080452     0.25700
C1230       C  0.81627162  0.52571803  0.80036223    -0.22400
C1231       C  0.77869663  0.53769380  0.77938878     0.20700
C1232       C  0.75481466  0.51346755  0.73136926     0.25700
C1233       C  0.76798708  0.47673088  0.70803448    -0.22300
C1234       C  0.80366537  0.46588400  0.73577216     0.20600
F1235       F  0.82051541  0.43325893  0.71474542    -0.12300
F1236       F  0.86263492  0.47629265  0.78677920    -0.14600
F1237       F  0.72027974  0.52607365  0.70805189    -0.14600
F1238       F  0.76533712  0.57179986  0.80366808    -0.12300
C1239       C  0.93919843  0.51130283  0.77669935     0.25700
C1240       C  0.92165831  0.51083502  0.70928475    -0.22400
C1241       C  0.90503720  0.54699259  0.69911415     0.20700
C1242       C  0.88444240  0.56451669  0.75419290     0.25700
C1243       C  0.88530297  0.54823006  0.82159444    -0.22300
C1244       C  0.92048314  0.52959403  0.83375752     0.20600
F1245       F  0.94194923  0.53966063  0.89203947    -0.12300
F1246       F  0.97805712  0.50545229  0.78235725    -0.14600
F1247       F  0.85989429  0.59297338  0.74000795    -0.14600
F1248       F  0.91737482  0.56933405  0.64513972    -0.12300
C1249       C  0.84481067  0.87304324  0.86151363    -0.00300
C1250       C  0.91356686  0.80557554  0.65902519    -0.00300
C1251       C  0.82701875  0.71524849  0.83950184    -0.00300
C1252       C  0.75547951  0.78302918  0.64370914    -0.00300
C1253       C  0.91438771  0.81156132  0.33894126    -0.00300
C1254       C  0.82929603  0.88706702  0.16128723    -0.00300
C1255       C  0.74191840  0.80178252  0.32958179    -0.00300
C1256       C  0.83184873  0.72542598  0.15230273    -0.00300
O1257       O  0.86210620  0.67418585  0.91928312    -0.70800
O1258       O  0.86353151  0.93405460  0.08424847    -0.71800
O1259       O  0.86753865  0.92677395  0.93495481    -0.60400
O1260       O  0.86294264  0.68289227  0.07004914    -0.68800
O1261       O  0.79828147  0.67548431  0.07290398    -0.68400
O1262       O  0.80295967  0.91912692  0.92463185    -0.59600
O1263       O  0.79900889  0.92603946  0.07504057    -0.72100
O1264       O  0.79723939  0.66941369  0.92050611    -0.70900
Cu1265     Cu  0.86613031  0.97141751  0.00211134     1.04600
Cu1266     Cu  0.79701905  0.96405742  0.99793705     1.04300
C1267       C  0.82903516  0.68355270  0.89406765     0.95400
C1268       C  0.83085707  0.91827141  0.10553368     0.94500
C1269       C  0.83727864  0.90903108  0.90696678     0.86700
C1270       C  0.83062248  0.69262042  0.09600855     0.93000
O1271       O  0.95972191  0.84062183  0.43111324    -0.70200
O1272       O  0.71218501  0.82595518  0.58064994    -0.71800
O1273       O  0.70928860  0.83258120  0.42855887    -0.60400
O1274       O  0.96255918  0.83601306  0.58309011    -0.68800
O1275       O  0.95402199  0.77165346  0.57613322    -0.68400
O1276       O  0.69794339  0.76887311  0.41514439    -0.59600
O1277       O  0.70167636  0.76204025  0.56700100    -0.72100
O1278       O  0.94900583  0.77658128  0.42719861    -0.70900
Cu1279     Cu  0.66966787  0.83606016  0.50659416     1.04600
Cu1280     Cu  0.65867849  0.76773588  0.49630208     1.04300
C1281       C  0.94137114  0.80996927  0.40415328     0.95400
C1282       C  0.71999332  0.79122795  0.59782481     0.94500
C1283       C  0.71535295  0.80085254  0.39498678     0.86700
C1284       C  0.94586915  0.80424450  0.60471032     0.93000
C1285       C  0.72871642  0.75285315  0.21890409     0.25700
C1286       C  0.73884277  0.75993028  0.28992301    -0.22400
C1287       C  0.76244320  0.73056632  0.31558931     0.20700
C1288       C  0.78910713  0.71262536  0.27067778     0.25700
C1289       C  0.79183903  0.72244327  0.19900292    -0.22300
C1290       C  0.75417145  0.73235325  0.17453285     0.20600
F1291       F  0.73883175  0.71581156  0.11466520    -0.12300
F1292       F  0.69093011  0.75475366  0.19855570    -0.14600
F1293       F  0.80255282  0.01238885  0.29303532    -0.14600
F1294       F  0.76516501  0.72477539  0.38519148    -0.12300
C1295       C  0.86754496  0.79001484  0.09498013     0.25700
C1296       C  0.83350570  0.76552897  0.11046804    -0.22400
C1297       C  0.79980325  0.78272768  0.08506636     0.20700
C1298       C  0.79811728  0.82373284  0.08892998     0.25700
C1299       C  0.83055705  0.84697742  0.11744919    -0.22300
C1300       C  0.86541834  0.83077540  0.09637445     0.20600
F1301       F  0.89399745  0.85292609  0.06572170    -0.12300
F1302       F  0.89988395  0.77642128  0.06592484    -0.14600
F1303       F  0.76995494  0.83970474  0.05135671    -0.14600
F1304       F  0.77320039  0.76174762  0.04472683    -0.12300
C1305       C  0.75153302  0.86989935  0.17480611     0.25700
C1306       C  0.78750355  0.88735219  0.20168105    -0.22400
C1307       C  0.78199388  0.89927473  0.27147357     0.20700
C1308       C  0.75695475  0.87651964  0.31509698     0.25700
C1309       C  0.73699100  0.84125831  0.28827564    -0.22300
C1310       C  0.72862252  0.84356149  0.21600038     0.20600
F1311       F  0.69680952  0.82456627  0.18653912    -0.12300
F1312       F  0.73495667  0.88400262  0.11673009    -0.14600
F1313       F  0.75668420  0.88632613  0.38395063    -0.14600
F1314       F  0.78715588  0.93771164  0.28827727    -0.12300
C1315       C  0.84827914  0.81358274  0.41257995     0.25700
C1316       C  0.86948756  0.80882518  0.35084898    -0.22400
C1317       C  0.84811378  0.80697964  0.28876733     0.20700
C1318       C  0.80928183  0.80579096  0.28607602     0.25700
C1319       C  0.78650144  0.80625371  0.34543663    -0.22300
C1320       C  0.80632046  0.81220210  0.40974662     0.20600
F1321       F  0.78524598  0.82077791  0.46589646    -0.12300
F1322       F  0.86813751  0.82465851  0.47113360    -0.14600
F1323       F  0.79325216  0.80367992  0.22231525    -0.14600
F1324       F  0.86591635  0.80836024  0.22752884    -0.12300
C1325       C  0.89653133  0.73702800  0.31774019     0.25700
C1326       C  0.91823629  0.77147445  0.29491789    -0.22400
C1327       C  0.92985743  0.76769228  0.22445969     0.20700
C1328       C  0.90929897  0.73976035  0.17939548     0.25700
C1329       C  0.87200088  0.72347595  0.19892793    -0.22300
C1330       C  0.87422981  0.71297580  0.26928309     0.20600
F1331       F  0.86960430  0.67463104  0.28423748    -0.12300
F1332       F  0.89182886  0.72974759  0.38644192    -0.14600
F1333       F  0.92767120  0.72506011  0.12293929    -0.14600
F1334       F  0.96082982  0.78879661  0.19963338    -0.12300
C1335       C  0.86869580  0.90065672  0.28622104     0.25700
C1336       C  0.86797789  0.89185304  0.21310497    -0.22400
C1337       C  0.90661631  0.88325281  0.19212399     0.20700
C1338       C  0.93059352  0.86110889  0.23550153     0.25700
C1339       C  0.91914047  0.85366113  0.30451288    -0.22300
C1340       C  0.89569482  0.88345456  0.33108968     0.20600
F1341       F  0.89379000  0.89055968  0.40083926    -0.12300
F1342       F  0.85301589  0.93294076  0.31194219    -0.14600
F1343       F  0.96880382  0.85900720  0.21910532    -0.14600
F1344       F  0.92400728  0.90261257  0.13868423    -0.12300
C1345       C  0.73224715  0.73907442  0.74609163     0.25700
C1346       C  0.74909996  0.74106490  0.67846982    -0.22400
C1347       C  0.77164853  0.70852497  0.66380726     0.20700
C1348       C  0.79011661  0.68977075  0.71971961     0.25700
C1349       C  0.78894095  0.70571695  0.78865453    -0.22300
C1350       C  0.75144333  0.71957152  0.80007226     0.20600
F1351       F  0.73062103  0.70729641  0.85627223    -0.12300
F1352       F  0.70163451  0.76076402  0.76224170    -0.14600
F1353       F  0.79872275  0.65193058  0.71048314    -0.14600
F1354       F  0.76767029  0.68958455  0.60119045    -0.12300
C1355       C  0.85796466  0.77197560  0.57536003     0.25700
C1356       C  0.87346957  0.80551592  0.61434504    -0.22400
C1357       C  0.84912745  0.83737749  0.60628359     0.20700
C1358       C  0.80878826  0.83046645  0.59481223     0.25700
C1359       C  0.79170716  0.79156714  0.59472831    -0.22300
C1360       C  0.81701840  0.76377493  0.56961646     0.20600
F1361       F  0.80301935  0.73437558  0.52630227    -0.12300
F1362       F  0.88142065  0.75136765  0.53370773    -0.14600
F1363       F  0.78591622  0.86150979  0.59292918    -0.14600
F1364       F  0.86362987  0.87255584  0.58559519    -0.12300
C1365       C  0.87137448  0.70584111  0.72420392     0.25700
C1366       C  0.86721251  0.71801043  0.79459205    -0.22400
C1367       C  0.90333128  0.73674128  0.81782423     0.20700
C1368       C  0.92451774  0.76224690  0.77307093     0.25700
C1369       C  0.91146632  0.76602980  0.70333786    -0.22300
C1370       C  0.89403676  0.72957983  0.67864766     0.20600
F1371       F  0.90773086  0.71214227  0.62046771    -0.12300
F1372       F  0.86712277  0.66736001  0.70733183    -0.14600
F1373       F  0.96262733  0.77073645  0.78947795    -0.14600
F1374       F  0.92407934  0.72057319  0.86923762    -0.12300
C1375       C  0.85945279  0.77009570  0.92280634     0.25700
C1376       C  0.82557617  0.75506016  0.88600097    -0.22400
C1377       C  0.79371570  0.77945577  0.89901076     0.20700
C1378       C  0.80095233  0.81937795  0.91712983     0.25700
C1379       C  0.83964801  0.83682866  0.91170197    -0.22300
C1380       C  0.86873660  0.81062925  0.92740417     0.20600
F1381       F  0.90489420  0.82279999  0.95040059    -0.12300
F1382       F  0.88320355  0.74576911  0.95430973    -0.14600
F1383       F  0.76972060  0.84211062  0.91968673    -0.14600
F1384       F  0.75637704  0.76580650  0.90686256    -0.12300
C1385       C  0.82808253  0.82418771  0.77080470     0.25700
C1386       C  0.81627085  0.85905117  0.80036198    -0.22400
C1387       C  0.77869579  0.87102676  0.77938846     0.20700
C1388       C  0.75481393  0.84680030  0.73136905     0.25700
C1389       C  0.76798638  0.81006358  0.70803487    -0.22300
C1390       C  0.80366466  0.79921680  0.73577275     0.20600
F1391       F  0.82051482  0.76659179  0.71474618    -0.12300
F1392       F  0.86263437  0.80962601  0.78677897    -0.14600
F1393       F  0.72027910  0.85940635  0.70805115    -0.14600
F1394       F  0.76533625  0.90513290  0.80366707    -0.12300
C1395       C  0.93919770  0.84463649  0.77669915     0.25700
C1396       C  0.92165753  0.84416846  0.70928452    -0.22400
C1397       C  0.90503643  0.88032602  0.69911373     0.20700
C1398       C  0.88444139  0.89785009  0.75419231     0.25700
C1399       C  0.88530210  0.88156358  0.82159390    -0.22300
C1400       C  0.92048240  0.86292781  0.83375716     0.20600
F1401       F  0.94194835  0.87299434  0.89203914    -0.12300
F1402       F  0.97805642  0.83878599  0.78235714    -0.14600
F1403       F  0.85989347  0.92630689  0.74000753    -0.14600
F1404       F  0.91737362  0.90266733  0.64513894    -0.12300
loop_ 
_geom_bond_atom_site_label_1 
_geom_bond_atom_site_label_2 
_geom_bond_distance 
_geom_bond_site_symmetry_2 
_ccdc_geom_bond_type 
C1           C21   1.530       .  S
C1          C131   1.592       .  S
C1          C138   1.565       .  S
C1          C151   1.601       .  S
C2           C36   1.525       .  S
C2          C108   1.607       .  S
C2          C121   1.616       .  S
C2          C148   1.627       .  S
C3           C19   1.531       .  S
C3          C101   1.629       .  S
C3          C118   1.625       .  S
C3          C128   1.616       .  S
C4           C34   1.533       .  S
C4           C98   1.604       .  S
C4          C111   1.577       .  S
C4          C141   1.565       .  S
C5           C33   1.549       .  S
C5           C68   1.548       .  S
C5           C78   1.609       .  S
C5           C91   1.602       .  S
C6           C20   1.530       .  S
C6           C51   1.597       .  S
C6           C58   1.629       .  S
C6           C88   1.642       .  S
C7           C35   1.554       .  S
C7           C38   1.605       .  S
C7           C61   1.601       .  S
C7           C71   1.546       .  S
C8           C22   1.539       .  S
C8           C41   1.639       .  S
C8           C48   1.607       .  S
C8           C81   1.634       .  S
O9           C19   1.284       .  A
O9         Cu329   2.046   1_546  S
O10          C20   1.284       .  A
O10         Cu17   2.053       .  S
O11          C21   1.274       .  A
O11         Cu17   1.980   1_556  S
O12          C22   1.273       .  A
O12        Cu329   1.999   1_545  S
O13          C22   1.288       .  A
O13        Cu330   2.076   1_544  S
O14          C21   1.287       .  A
O14         Cu18   2.081       .  S
O15          C20   1.274       .  A
O15         Cu18   1.998   1_554  S
O16          C19   1.276       .  A
O16        Cu330   2.014   1_545  S
Cu17        O165   2.046   1_554  S
Cu17        O168   1.999       .  S
Cu17        Cu18   2.356   1_554  S
Cu18        O169   2.076   1_556  S
Cu18        O172   2.014       .  S
O23          C33   1.286       .  A
O23        Cu499   2.073       .  S
O24          C34   1.286       .  A
O24         Cu31   2.070       .  S
O25          C35   1.280       .  A
O25         Cu31   2.032       .  S
O26          C36   1.278       .  A
O26        Cu499   2.023       .  S
O27          C36   1.280       .  A
O27        Cu500   2.022       .  S
O28          C35   1.285       .  A
O28         Cu32   2.063   1_455  S
O29          C34   1.277       .  A
O29         Cu32   2.009   1_455  S
O30          C33   1.277       .  A
O30        Cu500   2.009       .  S
Cu31        O959   2.073   1_455  S
Cu31        O962   2.023   1_455  S
Cu31        Cu32   2.354   1_455  S
Cu32        O963   2.022       .  S
Cu32        O966   2.009       .  S
C37          C38   1.413       .  A
C37          C42   1.425       .  A
C37          F44   1.349       .  S
C38          C39   1.420       .  A
C39          C40   1.416       .  A
C39          F46   1.357       .  S
C40          C41   1.425       .  A
C40         F357   1.343       .  S
C41          C42   1.426       .  A
C42          F43   1.355       .  S
F45         C196   1.343       .  S
C47          C48   1.429       .  A
C47          C52   1.404       .  A
C47          F54   1.344       .  S
C48          C49   1.411       .  A
C49          C50   1.411       .  A
C49          F56   1.349       .  S
C50          C51   1.421       .  A
C50          F55   1.346       .  S
C51          C52   1.401       .  A
C52          F53   1.348       .  S
C57          C58   1.419       .  A
C57          C62   1.418       .  A
C57          F64   1.357       .  S
C58          C59   1.408       .  A
C59          C60   1.415       .  A
C59          F66   1.350       .  S
C60          C61   1.434       .  A
C60          F65   1.355       .  S
C61          C62   1.417       .  A
C62          F63   1.344       .  S
C67          C68   1.405       .  A
C67          C72   1.430       .  A
C67          F74   1.341       .  S
C68          C69   1.388       .  A
C69          C70   1.323       .  A
C69          F76   1.328       .  S
C70          C71   1.385       .  A
C70          F75   1.333       .  S
C71          C72   1.405       .  A
C72          F73   1.337       .  S
C77          C78   1.436       .  A
C77          C82   1.413       .  A
C77          F84   1.356       .  S
C78          C79   1.417       .  A
C79          C80   1.423       .  A
C79          F86   1.342       .  S
C80          C81   1.416       .  A
C80          F85   1.358       .  S
C81          C82   1.407       .  A
C82          F83   1.353       .  S
C87          C88   1.427       .  A
C87          C92   1.418       .  A
C87          F94   1.344       .  S
C88          C89   1.427       .  A
C89          C90   1.424       .  A
C89          F96   1.356       .  S
C90          C91   1.408       .  A
C90          F95   1.349       .  S
C91          C92   1.423       .  A
C92          F93   1.357       .  S
C97          C98   1.425       .  A
C97         C102   1.421       .  A
C97         F104   1.352       .  S
C98          C99   1.417       .  A
C99         C100   1.424       .  A
C99         F106   1.353       .  S
C100        C101   1.420       .  A
C100        F105   1.355   1_545  S
C101        C102   1.408       .  A
C102        F103   1.358       .  S
C107        C108   1.428       .  A
C107        C112   1.411       .  A
C107        F114   1.353       .  S
C108        C109   1.422       .  A
C109        C110   1.397       .  A
C109        F116   1.346       .  S
C110        C111   1.423       .  A
C110        F115   1.358       .  S
C111        C112   1.404       .  A
C112        F113   1.352       .  S
C117        C118   1.414       .  A
C117        C122   1.412       .  A
C117        F124   1.350       .  S
C118        C119   1.418       .  A
C119        C120   1.413       .  A
C119        F126   1.356       .  S
C120        C121   1.417       .  A
C120        F125   1.348       .  S
C121        C122   1.420       .  A
C122        F123   1.354       .  S
C127        C128   1.412       .  A
C127        C132   1.407       .  A
C127        F134   1.346       .  S
C128        C129   1.431       .  A
C129        C130   1.411       .  A
C129        F136   1.341       .  S
C130        C131   1.422       .  A
C130        F135   1.358       .  S
C131        C132   1.413       .  A
C132        F133   1.345       .  S
C137        C138   1.394       .  A
C137        C142   1.325       .  A
C137        F144   1.343       .  S
C138        C139   1.426       .  A
C139        C140   1.439       .  A
C139        F146   1.354       .  S
C140        C141   1.426       .  A
C140        F145   1.354       .  S
C141        C142   1.398       .  A
C142        F143   1.343       .  S
C147        C148   1.419       .  A
C147        C152   1.424       .  A
C147        F154   1.356       .  S
C148        C149   1.411       .  A
C149        C150   1.416       .  A
C149        F156   1.358       .  S
C150        C151   1.421       .  A
C150        F155   1.354       .  S
C151        C152   1.413       .  A
C152        F153   1.356       .  S
C157        C177   1.530       .  S
C157        C287   1.592       .  S
C157        C294   1.565       .  S
C157        C307   1.601       .  S
C158        C192   1.525       .  S
C158        C264   1.607       .  S
C158        C277   1.616       .  S
C158        C304   1.627       .  S
C159        C175   1.531       .  S
C159        C257   1.629       .  S
C159        C274   1.625       .  S
C159        C284   1.616       .  S
C160        C190   1.533       .  S
C160        C254   1.604       .  S
C160        C267   1.577       .  S
C160        C297   1.565       .  S
C161        C189   1.549       .  S
C161        C224   1.548       .  S
C161        C234   1.609       .  S
C161        C247   1.602       .  S
C162        C176   1.530       .  S
C162        C207   1.597       .  S
C162        C214   1.629       .  S
C162        C244   1.642       .  S
C163        C191   1.554       .  S
C163        C194   1.605       .  S
C163        C217   1.601       .  S
C163        C227   1.546       .  S
C164        C178   1.539       .  S
C164        C197   1.639       .  S
C164        C204   1.607       .  S
C164        C237   1.634       .  S
O165        C175   1.284       .  A
O166        C176   1.284       .  A
O166       Cu173   2.053       .  S
O167        C177   1.274       .  A
O167       Cu173   1.980   1_556  S
O168        C178   1.273       .  A
O169        C178   1.288       .  A
O170        C177   1.287       .  A
O170       Cu174   2.081       .  S
O171        C176   1.274       .  A
O171       Cu174   1.998   1_554  S
O172        C175   1.276       .  A
Cu173       O321   2.046   1_554  S
Cu173       O324   1.999       .  S
Cu173      Cu174   2.356   1_554  S
Cu174       O325   2.076   1_556  S
Cu174       O328   2.014       .  S
O179        C189   1.286       .  A
O179       Cu655   2.073       .  S
O180        C190   1.286       .  A
O180       Cu187   2.070       .  S
O181        C191   1.280       .  A
O181       Cu187   2.032       .  S
O182        C192   1.279       .  A
O182       Cu655   2.023       .  S
O183        C192   1.280       .  A
O183       Cu656   2.022       .  S
O184        C191   1.285       .  A
O184       Cu188   2.063   1_455  S
O185        C190   1.277       .  A
O185       Cu188   2.009   1_455  S
O186        C189   1.277       .  A
O186       Cu656   2.009       .  S
Cu187      O1115   2.073   1_455  S
Cu187      O1118   2.023   1_455  S
Cu187      Cu188   2.354   1_455  S
Cu188      O1119   2.022       .  S
Cu188      O1122   2.009       .  S
C193        C194   1.413       .  A
C193        C198   1.425       .  A
C193        F200   1.349       .  S
C194        C195   1.420       .  A
C195        C196   1.416       .  A
C195        F202   1.357       .  S
C196        C197   1.425       .  A
C197        C198   1.426       .  A
C198        F199   1.355       .  S
F201        C352   1.343       .  S
C203        C204   1.429       .  A
C203        C208   1.404       .  A
C203        F210   1.344       .  S
C204        C205   1.411       .  A
C205        C206   1.411       .  A
C205        F212   1.349       .  S
C206        C207   1.421       .  A
C206        F211   1.346       .  S
C207        C208   1.401       .  A
C208        F209   1.348       .  S
C213        C214   1.419       .  A
C213        C218   1.418       .  A
C213        F220   1.357       .  S
C214        C215   1.408       .  A
C215        C216   1.415       .  A
C215        F222   1.350       .  S
C216        C217   1.434       .  A
C216        F221   1.355       .  S
C217        C218   1.417       .  A
C218        F219   1.344       .  S
C223        C224   1.405       .  A
C223        C228   1.430       .  A
C223        F230   1.341       .  S
C224        C225   1.388       .  A
C225        C226   1.323       .  A
C225        F232   1.328       .  S
C226        C227   1.385       .  A
C226        F231   1.333       .  S
C227        C228   1.405       .  A
C228        F229   1.337       .  S
C233        C234   1.436       .  A
C233        C238   1.413       .  A
C233        F240   1.356       .  S
C234        C235   1.417       .  A
C235        C236   1.423       .  A
C235        F242   1.342       .  S
C236        C237   1.416       .  A
C236        F241   1.358       .  S
C237        C238   1.407       .  A
C238        F239   1.353       .  S
C243        C244   1.427       .  A
C243        C248   1.418       .  A
C243        F250   1.344       .  S
C244        C245   1.427       .  A
C245        C246   1.424       .  A
C245        F252   1.356       .  S
C246        C247   1.408       .  A
C246        F251   1.349       .  S
C247        C248   1.423       .  A
C248        F249   1.357       .  S
C253        C254   1.425       .  A
C253        C258   1.421       .  A
C253        F260   1.352       .  S
C254        C255   1.417       .  A
C255        C256   1.424       .  A
C255        F262   1.353       .  S
C256        C257   1.420       .  A
C256        F261   1.355       .  S
C257        C258   1.408       .  A
C258        F259   1.358       .  S
C263        C264   1.428       .  A
C263        C268   1.411       .  A
C263        F270   1.353       .  S
C264        C265   1.422       .  A
C265        C266   1.397       .  A
C265        F272   1.346       .  S
C266        C267   1.423       .  A
C266        F271   1.358       .  S
C267        C268   1.404       .  A
C268        F269   1.352       .  S
C273        C274   1.414       .  A
C273        C278   1.412       .  A
C273        F280   1.350       .  S
C274        C275   1.418       .  A
C275        C276   1.413       .  A
C275        F282   1.356       .  S
C276        C277   1.417       .  A
C276        F281   1.348       .  S
C277        C278   1.420       .  A
C278        F279   1.354       .  S
C283        C284   1.412       .  A
C283        C288   1.407       .  A
C283        F290   1.346       .  S
C284        C285   1.431       .  A
C285        C286   1.411       .  A
C285        F292   1.341       .  S
C286        C287   1.422       .  A
C286        F291   1.358       .  S
C287        C288   1.413       .  A
C288        F289   1.345       .  S
C293        C294   1.394       .  A
C293        C298   1.325       .  A
C293        F300   1.343       .  S
C294        C295   1.426       .  A
C295        C296   1.439       .  A
C295        F302   1.354       .  S
C296        C297   1.426       .  A
C296        F301   1.354       .  S
C297        C298   1.398       .  A
C298        F299   1.343       .  S
C303        C304   1.419       .  A
C303        C308   1.424       .  A
C303        F310   1.356       .  S
C304        C305   1.411       .  A
C305        C306   1.416       .  A
C305        F312   1.358       .  S
C306        C307   1.421       .  A
C306        F311   1.354       .  S
C307        C308   1.413       .  A
C308        F309   1.356       .  S
C313        C333   1.530       .  S
C313        C443   1.592       .  S
C313        C450   1.565       .  S
C313        C463   1.601       .  S
C314        C348   1.525       .  S
C314        C420   1.607       .  S
C314        C433   1.616       .  S
C314        C460   1.627       .  S
C315        C331   1.531       .  S
C315        C413   1.629       .  S
C315        C430   1.625       .  S
C315        C440   1.616       .  S
C316        C346   1.533       .  S
C316        C410   1.604       .  S
C316        C423   1.577       .  S
C316        C453   1.565       .  S
C317        C345   1.549       .  S
C317        C380   1.548       .  S
C317        C390   1.609       .  S
C317        C403   1.602       .  S
C318        C332   1.530       .  S
C318        C363   1.597       .  S
C318        C370   1.629       .  S
C318        C400   1.642       .  S
C319        C347   1.554       .  S
C319        C350   1.605       .  S
C319        C373   1.601       .  S
C319        C383   1.546       .  S
C320        C334   1.539       .  S
C320        C353   1.639       .  S
C320        C360   1.607       .  S
C320        C393   1.634       .  S
O321        C331   1.284       .  A
O322        C332   1.284       .  A
O322       Cu329   2.053       .  S
O323        C333   1.274       .  A
O323       Cu329   1.980   1_556  S
O324        C334   1.273       .  A
O325        C334   1.288       .  A
O326        C333   1.287       .  A
O326       Cu330   2.081       .  S
O327        C332   1.274       .  A
O327       Cu330   1.998   1_554  S
O328        C331   1.276       .  A
Cu329      Cu330   2.356   1_554  S
O335        C345   1.286       .  A
O335       Cu811   2.073       .  S
O336        C346   1.286       .  A
O336       Cu343   2.070       .  S
O337        C347   1.280       .  A
O337       Cu343   2.032       .  S
O338        C348   1.278       .  A
O338       Cu811   2.023       .  S
O339        C348   1.280       .  A
O339       Cu812   2.022       .  S
O340        C347   1.285       .  A
O340       Cu344   2.063   1_455  S
O341        C346   1.277       .  A
O341       Cu344   2.009   1_455  S
O342        C345   1.277       .  A
O342       Cu812   2.009       .  S
Cu343      O1271   2.073   1_455  S
Cu343      O1274   2.023   1_455  S
Cu343      Cu344   2.354   1_455  S
Cu344      O1275   2.022       .  S
Cu344      O1278   2.009       .  S
C349        C350   1.413       .  A
C349        C354   1.425       .  A
C349        F356   1.349       .  S
C350        C351   1.420       .  A
C351        C352   1.416       .  A
C351        F358   1.357       .  S
C352        C353   1.425       .  A
C353        C354   1.426       .  A
C354        F355   1.355       .  S
C359        C360   1.429       .  A
C359        C364   1.404       .  A
C359        F366   1.344       .  S
C360        C361   1.411       .  A
C361        C362   1.411       .  A
C361        F368   1.349       .  S
C362        C363   1.421       .  A
C362        F367   1.346       .  S
C363        C364   1.401       .  A
C364        F365   1.348       .  S
C369        C370   1.419       .  A
C369        C374   1.418       .  A
C369        F376   1.357       .  S
C370        C371   1.408       .  A
C371        C372   1.415       .  A
C371        F378   1.350       .  S
C372        C373   1.434       .  A
C372        F377   1.355       .  S
C373        C374   1.417       .  A
C374        F375   1.344       .  S
C379        C380   1.405       .  A
C379        C384   1.430       .  A
C379        F386   1.341       .  S
C380        C381   1.388       .  A
C381        C382   1.323       .  A
C381        F388   1.328       .  S
C382        C383   1.385       .  A
C382        F387   1.333       .  S
C383        C384   1.405       .  A
C384        F385   1.337       .  S
C389        C390   1.436       .  A
C389        C394   1.413       .  A
C389        F396   1.356       .  S
C390        C391   1.417       .  A
C391        C392   1.423       .  A
C391        F398   1.342       .  S
C392        C393   1.416       .  A
C392        F397   1.358       .  S
C393        C394   1.407       .  A
C394        F395   1.353       .  S
C399        C400   1.427       .  A
C399        C404   1.418       .  A
C399        F406   1.344       .  S
C400        C401   1.427       .  A
C401        C402   1.424       .  A
C401        F408   1.356       .  S
C402        C403   1.408       .  A
C402        F407   1.349       .  S
C403        C404   1.423       .  A
C404        F405   1.357       .  S
C409        C410   1.425       .  A
C409        C414   1.421       .  A
C409        F416   1.352       .  S
C410        C411   1.417       .  A
C411        C412   1.424       .  A
C411        F418   1.353       .  S
C412        C413   1.420       .  A
C412        F417   1.355       .  S
C413        C414   1.408       .  A
C414        F415   1.358       .  S
C419        C420   1.428       .  A
C419        C424   1.411       .  A
C419        F426   1.353       .  S
C420        C421   1.422       .  A
C421        C422   1.397       .  A
C421        F428   1.346       .  S
C422        C423   1.423       .  A
C422        F427   1.358       .  S
C423        C424   1.404       .  A
C424        F425   1.352       .  S
C429        C430   1.414       .  A
C429        C434   1.412       .  A
C429        F436   1.350       .  S
C430        C431   1.418       .  A
C431        C432   1.413       .  A
C431        F438   1.356       .  S
C432        C433   1.417       .  A
C432        F437   1.348       .  S
C433        C434   1.420       .  A
C434        F435   1.354       .  S
C439        C440   1.412       .  A
C439        C444   1.407       .  A
C439        F446   1.346       .  S
C440        C441   1.431       .  A
C441        C442   1.411       .  A
C441        F448   1.341       .  S
C442        C443   1.422       .  A
C442        F447   1.358       .  S
C443        C444   1.413       .  A
C444        F445   1.345       .  S
C449        C450   1.394       .  A
C449        C454   1.325       .  A
C449        F456   1.343       .  S
C450        C451   1.426       .  A
C451        C452   1.439       .  A
C451        F458   1.354       .  S
C452        C453   1.426       .  A
C452        F457   1.354       .  S
C453        C454   1.398       .  A
C454        F455   1.343       .  S
C459        C460   1.419       .  A
C459        C464   1.424       .  A
C459        F466   1.356       .  S
C460        C461   1.411       .  A
C461        C462   1.416       .  A
C461        F468   1.358       .  S
C462        C463   1.421       .  A
C462        F467   1.354       .  S
C463        C464   1.413       .  A
C464        F465   1.356       .  S
C469        C489   1.530       .  S
C469        C599   1.592       .  S
C469        C606   1.565       .  S
C469        C619   1.601       .  S
C470        C504   1.525       .  S
C470        C576   1.607       .  S
C470        C589   1.616       .  S
C470        C616   1.627       .  S
C471        C487   1.531       .  S
C471        C569   1.629       .  S
C471        C586   1.625       .  S
C471        C596   1.616       .  S
C472        C502   1.533       .  S
C472        C566   1.604       .  S
C472        C579   1.577       .  S
C472        C609   1.565       .  S
C473        C501   1.549       .  S
C473        C536   1.548       .  S
C473        C546   1.609       .  S
C473        C559   1.602       .  S
C474        C488   1.530       .  S
C474        C519   1.597       .  S
C474        C526   1.629       .  S
C474        C556   1.642       .  S
C475        C503   1.554       .  S
C475        C506   1.605       .  S
C475        C529   1.601       .  S
C475        C539   1.546       .  S
C476        C490   1.539       .  S
C476        C509   1.639       .  S
C476        C516   1.607       .  S
C476        C549   1.634       .  S
O477        C487   1.284       .  A
O477       Cu797   2.046   1_546  S
O478        C488   1.284       .  A
O478       Cu485   2.053       .  S
O479        C489   1.274       .  A
O479       Cu485   1.980   1_556  S
O480        C490   1.273       .  A
O480       Cu797   1.999   1_545  S
O481        C490   1.288       .  A
O481       Cu798   2.076   1_544  S
O482        C489   1.287       .  A
O482       Cu486   2.081       .  S
O483        C488   1.274       .  A
O483       Cu486   1.998   1_554  S
O484        C487   1.276       .  A
O484       Cu798   2.014   1_545  S
Cu485       O633   2.046   1_554  S
Cu485       O636   1.999       .  S
Cu485      Cu486   2.356   1_554  S
Cu486       O637   2.076   1_556  S
Cu486       O640   2.014       .  S
O491        C501   1.286       .  A
O491       Cu967   2.073       .  S
O492        C502   1.286       .  A
O492       Cu499   2.070       .  S
O493        C503   1.280       .  A
O493       Cu499   2.032       .  S
O494        C504   1.278       .  A
O494       Cu967   2.023       .  S
O495        C504   1.280       .  A
O495       Cu968   2.022       .  S
O496        C503   1.285       .  A
O496       Cu500   2.063       .  S
O497        C502   1.277       .  A
O497       Cu500   2.009       .  S
O498        C501   1.277       .  A
O498       Cu968   2.009       .  S
Cu499      Cu500   2.354       .  S
C505        C506   1.413       .  A
C505        C510   1.425       .  A
C505        F512   1.349       .  S
C506        C507   1.420       .  A
C507        C508   1.416       .  A
C507        F514   1.357       .  S
C508        C509   1.425       .  A
C508        F825   1.343       .  S
C509        C510   1.426       .  A
C510        F511   1.355       .  S
F513        C664   1.343       .  S
C515        C516   1.429       .  A
C515        C520   1.404       .  A
C515        F522   1.344       .  S
C516        C517   1.411       .  A
C517        C518   1.411       .  A
C517        F524   1.349       .  S
C518        C519   1.421       .  A
C518        F523   1.346       .  S
C519        C520   1.401       .  A
C520        F521   1.348       .  S
C525        C526   1.419       .  A
C525        C530   1.418       .  A
C525        F532   1.357       .  S
C526        C527   1.408       .  A
C527        C528   1.415       .  A
C527        F534   1.350       .  S
C528        C529   1.434       .  A
C528        F533   1.355       .  S
C529        C530   1.417       .  A
C530        F531   1.344       .  S
C535        C536   1.405       .  A
C535        C540   1.430       .  A
C535        F542   1.341       .  S
C536        C537   1.388       .  A
C537        C538   1.323       .  A
C537        F544   1.328       .  S
C538        C539   1.385       .  A
C538        F543   1.333       .  S
C539        C540   1.405       .  A
C540        F541   1.337       .  S
C545        C546   1.436       .  A
C545        C550   1.413       .  A
C545        F552   1.356       .  S
C546        C547   1.417       .  A
C547        C548   1.423       .  A
C547        F554   1.342       .  S
C548        C549   1.416       .  A
C548        F553   1.358       .  S
C549        C550   1.407       .  A
C550        F551   1.353       .  S
C555        C556   1.427       .  A
C555        C560   1.418       .  A
C555        F562   1.344       .  S
C556        C557   1.427       .  A
C557        C558   1.424       .  A
C557        F564   1.356       .  S
C558        C559   1.408       .  A
C558        F563   1.349       .  S
C559        C560   1.423       .  A
C560        F561   1.357       .  S
C565        C566   1.425       .  A
C565        C570   1.421       .  A
C565        F572   1.352       .  S
C566        C567   1.417       .  A
C567        C568   1.424       .  A
C567        F574   1.353       .  S
C568        C569   1.420       .  A
C568        F573   1.355   1_545  S
C569        C570   1.408       .  A
C570        F571   1.358       .  S
C575        C576   1.428       .  A
C575        C580   1.411       .  A
C575        F582   1.353       .  S
C576        C577   1.422       .  A
C577        C578   1.397       .  A
C577        F584   1.346       .  S
C578        C579   1.423       .  A
C578        F583   1.358       .  S
C579        C580   1.404       .  A
C580        F581   1.352       .  S
C585        C586   1.414       .  A
C585        C590   1.412       .  A
C585        F592   1.350       .  S
C586        C587   1.418       .  A
C587        C588   1.413       .  A
C587        F594   1.356       .  S
C588        C589   1.417       .  A
C588        F593   1.348       .  S
C589        C590   1.420       .  A
C590        F591   1.354       .  S
C595        C596   1.412       .  A
C595        C600   1.407       .  A
C595        F602   1.346       .  S
C596        C597   1.431       .  A
C597        C598   1.411       .  A
C597        F604   1.341       .  S
C598        C599   1.422       .  A
C598        F603   1.358       .  S
C599        C600   1.413       .  A
C600        F601   1.345       .  S
C605        C606   1.394       .  A
C605        C610   1.325       .  A
C605        F612   1.343       .  S
C606        C607   1.426       .  A
C607        C608   1.439       .  A
C607        F614   1.354       .  S
C608        C609   1.426       .  A
C608        F613   1.354       .  S
C609        C610   1.398       .  A
C610        F611   1.343       .  S
C615        C616   1.419       .  A
C615        C620   1.424       .  A
C615        F622   1.356       .  S
C616        C617   1.411       .  A
C617        C618   1.416       .  A
C617        F624   1.358       .  S
C618        C619   1.421       .  A
C618        F623   1.354       .  S
C619        C620   1.413       .  A
C620        F621   1.356       .  S
C625        C645   1.530       .  S
C625        C755   1.592       .  S
C625        C762   1.565       .  S
C625        C775   1.601       .  S
C626        C660   1.525       .  S
C626        C732   1.607       .  S
C626        C745   1.616       .  S
C626        C772   1.627       .  S
C627        C643   1.531       .  S
C627        C725   1.629       .  S
C627        C742   1.625       .  S
C627        C752   1.616       .  S
C628        C658   1.533       .  S
C628        C722   1.604       .  S
C628        C735   1.577       .  S
C628        C765   1.565       .  S
C629        C657   1.549       .  S
C629        C692   1.548       .  S
C629        C702   1.609       .  S
C629        C715   1.602       .  S
C630        C644   1.530       .  S
C630        C675   1.597       .  S
C630        C682   1.629       .  S
C630        C712   1.642       .  S
C631        C659   1.554       .  S
C631        C662   1.605       .  S
C631        C685   1.601       .  S
C631        C695   1.546       .  S
C632        C646   1.539       .  S
C632        C665   1.639       .  S
C632        C672   1.607       .  S
C632        C705   1.634       .  S
O633        C643   1.284       .  A
O634        C644   1.284       .  A
O634       Cu641   2.053       .  S
O635        C645   1.274       .  A
O635       Cu641   1.980   1_556  S
O636        C646   1.273       .  A
O637        C646   1.288       .  A
O638        C645   1.287       .  A
O638       Cu642   2.081       .  S
O639        C644   1.274       .  A
O639       Cu642   1.998   1_554  S
O640        C643   1.276       .  A
Cu641       O789   2.046   1_554  S
Cu641       O792   1.999       .  S
Cu641      Cu642   2.356   1_554  S
Cu642       O793   2.076   1_556  S
Cu642       O796   2.014       .  S
O647        C657   1.286       .  A
O647      Cu1123   2.073       .  S
O648        C658   1.286       .  A
O648       Cu655   2.070       .  S
O649        C659   1.280       .  A
O649       Cu655   2.032       .  S
O650        C660   1.279       .  A
O650      Cu1123   2.023       .  S
O651        C660   1.280       .  A
O651      Cu1124   2.022       .  S
O652        C659   1.285       .  A
O652       Cu656   2.063       .  S
O653        C658   1.277       .  A
O653       Cu656   2.009       .  S
O654        C657   1.277       .  A
O654      Cu1124   2.009       .  S
Cu655      Cu656   2.354       .  S
C661        C662   1.413       .  A
C661        C666   1.425       .  A
C661        F668   1.349       .  S
C662        C663   1.420       .  A
C663        C664   1.416       .  A
C663        F670   1.357       .  S
C664        C665   1.425       .  A
C665        C666   1.426       .  A
C666        F667   1.355       .  S
F669        C820   1.343       .  S
C671        C672   1.429       .  A
C671        C676   1.404       .  A
C671        F678   1.344       .  S
C672        C673   1.411       .  A
C673        C674   1.411       .  A
C673        F680   1.349       .  S
C674        C675   1.421       .  A
C674        F679   1.346       .  S
C675        C676   1.401       .  A
C676        F677   1.348       .  S
C681        C682   1.419       .  A
C681        C686   1.418       .  A
C681        F688   1.357       .  S
C682        C683   1.408       .  A
C683        C684   1.415       .  A
C683        F690   1.350       .  S
C684        C685   1.434       .  A
C684        F689   1.355       .  S
C685        C686   1.417       .  A
C686        F687   1.344       .  S
C691        C692   1.405       .  A
C691        C696   1.430       .  A
C691        F698   1.341       .  S
C692        C693   1.388       .  A
C693        C694   1.323       .  A
C693        F700   1.328       .  S
C694        C695   1.385       .  A
C694        F699   1.333       .  S
C695        C696   1.405       .  A
C696        F697   1.337       .  S
C701        C702   1.436       .  A
C701        C706   1.413       .  A
C701        F708   1.356       .  S
C702        C703   1.417       .  A
C703        C704   1.423       .  A
C703        F710   1.342       .  S
C704        C705   1.416       .  A
C704        F709   1.358       .  S
C705        C706   1.407       .  A
C706        F707   1.353       .  S
C711        C712   1.427       .  A
C711        C716   1.418       .  A
C711        F718   1.344       .  S
C712        C713   1.427       .  A
C713        C714   1.424       .  A
C713        F720   1.356       .  S
C714        C715   1.408       .  A
C714        F719   1.349       .  S
C715        C716   1.423       .  A
C716        F717   1.357       .  S
C721        C722   1.425       .  A
C721        C726   1.421       .  A
C721        F728   1.352       .  S
C722        C723   1.417       .  A
C723        C724   1.424       .  A
C723        F730   1.353       .  S
C724        C725   1.420       .  A
C724        F729   1.355       .  S
C725        C726   1.408       .  A
C726        F727   1.358       .  S
C731        C732   1.428       .  A
C731        C736   1.411       .  A
C731        F738   1.353       .  S
C732        C733   1.422       .  A
C733        C734   1.397       .  A
C733        F740   1.346       .  S
C734        C735   1.423       .  A
C734        F739   1.358       .  S
C735        C736   1.404       .  A
C736        F737   1.352       .  S
C741        C742   1.414       .  A
C741        C746   1.412       .  A
C741        F748   1.350       .  S
C742        C743   1.418       .  A
C743        C744   1.413       .  A
C743        F750   1.356       .  S
C744        C745   1.417       .  A
C744        F749   1.348       .  S
C745        C746   1.420       .  A
C746        F747   1.354       .  S
C751        C752   1.412       .  A
C751        C756   1.407       .  A
C751        F758   1.346       .  S
C752        C753   1.431       .  A
C753        C754   1.411       .  A
C753        F760   1.341       .  S
C754        C755   1.422       .  A
C754        F759   1.358       .  S
C755        C756   1.413       .  A
C756        F757   1.345       .  S
C761        C762   1.394       .  A
C761        C766   1.325       .  A
C761        F768   1.343       .  S
C762        C763   1.426       .  A
C763        C764   1.439       .  A
C763        F770   1.354       .  S
C764        C765   1.426       .  A
C764        F769   1.354       .  S
C765        C766   1.398       .  A
C766        F767   1.343       .  S
C771        C772   1.419       .  A
C771        C776   1.424       .  A
C771        F778   1.356       .  S
C772        C773   1.411       .  A
C773        C774   1.416       .  A
C773        F780   1.358       .  S
C774        C775   1.421       .  A
C774        F779   1.354       .  S
C775        C776   1.413       .  A
C776        F777   1.356       .  S
C781        C801   1.530       .  S
C781        C911   1.592       .  S
C781        C918   1.565       .  S
C781        C931   1.601       .  S
C782        C816   1.525       .  S
C782        C888   1.607       .  S
C782        C901   1.616       .  S
C782        C928   1.627       .  S
C783        C799   1.531       .  S
C783        C881   1.629       .  S
C783        C898   1.625       .  S
C783        C908   1.616       .  S
C784        C814   1.533       .  S
C784        C878   1.604       .  S
C784        C891   1.577       .  S
C784        C921   1.565       .  S
C785        C813   1.549       .  S
C785        C848   1.548       .  S
C785        C858   1.609       .  S
C785        C871   1.602       .  S
C786        C800   1.530       .  S
C786        C831   1.597       .  S
C786        C838   1.629       .  S
C786        C868   1.642       .  S
C787        C815   1.554       .  S
C787        C818   1.605       .  S
C787        C841   1.601       .  S
C787        C851   1.546       .  S
C788        C802   1.539       .  S
C788        C821   1.639       .  S
C788        C828   1.607       .  S
C788        C861   1.634       .  S
O789        C799   1.284       .  A
O790        C800   1.284       .  A
O790       Cu797   2.053       .  S
O791        C801   1.274       .  A
O791       Cu797   1.980   1_556  S
O792        C802   1.273       .  A
O793        C802   1.288       .  A
O794        C801   1.287       .  A
O794       Cu798   2.081       .  S
O795        C800   1.274       .  A
O795       Cu798   1.998   1_554  S
O796        C799   1.276       .  A
Cu797      Cu798   2.356   1_554  S
O803        C813   1.286       .  A
O803      Cu1279   2.073       .  S
O804        C814   1.286       .  A
O804       Cu811   2.070       .  S
O805        C815   1.280       .  A
O805       Cu811   2.032       .  S
O806        C816   1.278       .  A
O806      Cu1279   2.023       .  S
O807        C816   1.280       .  A
O807      Cu1280   2.022       .  S
O808        C815   1.285       .  A
O808       Cu812   2.063       .  S
O809        C814   1.277       .  A
O809       Cu812   2.009       .  S
O810        C813   1.277       .  A
O810      Cu1280   2.009       .  S
Cu811      Cu812   2.354       .  S
C817        C818   1.413       .  A
C817        C822   1.425       .  A
C817        F824   1.349       .  S
C818        C819   1.420       .  A
C819        C820   1.416       .  A
C819        F826   1.357       .  S
C820        C821   1.425       .  A
C821        C822   1.426       .  A
C822        F823   1.355       .  S
C827        C828   1.429       .  A
C827        C832   1.404       .  A
C827        F834   1.344       .  S
C828        C829   1.411       .  A
C829        C830   1.411       .  A
C829        F836   1.349       .  S
C830        C831   1.421       .  A
C830        F835   1.346       .  S
C831        C832   1.401       .  A
C832        F833   1.348       .  S
C837        C838   1.419       .  A
C837        C842   1.418       .  A
C837        F844   1.357       .  S
C838        C839   1.408       .  A
C839        C840   1.415       .  A
C839        F846   1.350       .  S
C840        C841   1.434       .  A
C840        F845   1.355       .  S
C841        C842   1.417       .  A
C842        F843   1.344       .  S
C847        C848   1.405       .  A
C847        C852   1.430       .  A
C847        F854   1.341       .  S
C848        C849   1.388       .  A
C849        C850   1.323       .  A
C849        F856   1.328       .  S
C850        C851   1.385       .  A
C850        F855   1.333       .  S
C851        C852   1.405       .  A
C852        F853   1.337       .  S
C857        C858   1.436       .  A
C857        C862   1.413       .  A
C857        F864   1.356       .  S
C858        C859   1.417       .  A
C859        C860   1.423       .  A
C859        F866   1.342       .  S
C860        C861   1.416       .  A
C860        F865   1.358       .  S
C861        C862   1.407       .  A
C862        F863   1.353       .  S
C867        C868   1.427       .  A
C867        C872   1.418       .  A
C867        F874   1.344       .  S
C868        C869   1.427       .  A
C869        C870   1.424       .  A
C869        F876   1.356       .  S
C870        C871   1.408       .  A
C870        F875   1.349       .  S
C871        C872   1.423       .  A
C872        F873   1.357       .  S
C877        C878   1.425       .  A
C877        C882   1.421       .  A
C877        F884   1.352       .  S
C878        C879   1.417       .  A
C879        C880   1.424       .  A
C879        F886   1.353       .  S
C880        C881   1.420       .  A
C880        F885   1.355       .  S
C881        C882   1.408       .  A
C882        F883   1.358       .  S
C887        C888   1.428       .  A
C887        C892   1.411       .  A
C887        F894   1.353       .  S
C888        C889   1.422       .  A
C889        C890   1.397       .  A
C889        F896   1.346       .  S
C890        C891   1.423       .  A
C890        F895   1.358       .  S
C891        C892   1.404       .  A
C892        F893   1.352       .  S
C897        C898   1.414       .  A
C897        C902   1.412       .  A
C897        F904   1.350       .  S
C898        C899   1.418       .  A
C899        C900   1.413       .  A
C899        F906   1.356       .  S
C900        C901   1.417       .  A
C900        F905   1.348       .  S
C901        C902   1.420       .  A
C902        F903   1.354       .  S
C907        C908   1.412       .  A
C907        C912   1.407       .  A
C907        F914   1.346       .  S
C908        C909   1.431       .  A
C909        C910   1.411       .  A
C909        F916   1.341       .  S
C910        C911   1.422       .  A
C910        F915   1.358       .  S
C911        C912   1.413       .  A
C912        F913   1.345       .  S
C917        C918   1.394       .  A
C917        C922   1.325       .  A
C917        F924   1.343       .  S
C918        C919   1.426       .  A
C919        C920   1.439       .  A
C919        F926   1.354       .  S
C920        C921   1.426       .  A
C920        F925   1.354       .  S
C921        C922   1.398       .  A
C922        F923   1.343       .  S
C927        C928   1.419       .  A
C927        C932   1.424       .  A
C927        F934   1.356       .  S
C928        C929   1.411       .  A
C929        C930   1.416       .  A
C929        F936   1.358       .  S
C930        C931   1.421       .  A
C930        F935   1.354       .  S
C931        C932   1.413       .  A
C932        F933   1.356       .  S
C937        C957   1.530       .  S
C937       C1067   1.592       .  S
C937       C1074   1.565       .  S
C937       C1087   1.601       .  S
C938        C972   1.525       .  S
C938       C1044   1.607       .  S
C938       C1057   1.616       .  S
C938       C1084   1.627       .  S
C939        C955   1.531       .  S
C939       C1037   1.629       .  S
C939       C1054   1.625       .  S
C939       C1064   1.616       .  S
C940        C970   1.533       .  S
C940       C1034   1.604       .  S
C940       C1047   1.577       .  S
C940       C1077   1.565       .  S
C941        C969   1.549       .  S
C941       C1004   1.548       .  S
C941       C1014   1.609       .  S
C941       C1027   1.602       .  S
C942        C956   1.530       .  S
C942        C987   1.597       .  S
C942        C994   1.629       .  S
C942       C1024   1.642       .  S
C943        C971   1.554       .  S
C943        C974   1.605       .  S
C943        C997   1.601       .  S
C943       C1007   1.546       .  S
C944        C958   1.539       .  S
C944        C977   1.639       .  S
C944        C984   1.607       .  S
C944       C1017   1.634       .  S
O945        C955   1.284       .  A
O945      Cu1265   2.046   1_546  S
O946        C956   1.284       .  A
O946       Cu953   2.053       .  S
O947        C957   1.274       .  A
O947       Cu953   1.980   1_556  S
O948        C958   1.273       .  A
O948      Cu1265   1.999   1_545  S
O949        C958   1.288       .  A
O949      Cu1266   2.076   1_544  S
O950        C957   1.287       .  A
O950       Cu954   2.081       .  S
O951        C956   1.274       .  A
O951       Cu954   1.998   1_554  S
O952        C955   1.276       .  A
O952      Cu1266   2.014   1_545  S
Cu953      O1101   2.046   1_554  S
Cu953      O1104   1.999       .  S
Cu953      Cu954   2.356   1_554  S
Cu954      O1105   2.076   1_556  S
Cu954      O1108   2.014       .  S
O959        C969   1.286       .  A
O960        C970   1.286       .  A
O960       Cu967   2.070       .  S
O961        C971   1.280       .  A
O961       Cu967   2.032       .  S
O962        C972   1.278       .  A
O963        C972   1.280       .  A
O964        C971   1.285       .  A
O964       Cu968   2.063       .  S
O965        C970   1.277       .  A
O965       Cu968   2.009       .  S
O966        C969   1.277       .  A
Cu967      Cu968   2.354       .  S
C973        C974   1.413       .  A
C973        C978   1.425       .  A
C973        F980   1.349       .  S
C974        C975   1.420       .  A
C975        C976   1.416       .  A
C975        F982   1.357       .  S
C976        C977   1.425       .  A
C976       F1293   1.343       .  S
C977        C978   1.426       .  A
C978        F979   1.355       .  S
F981       C1132   1.343       .  S
C983        C984   1.429       .  A
C983        C988   1.404       .  A
C983        F990   1.344       .  S
C984        C985   1.411       .  A
C985        C986   1.411       .  A
C985        F992   1.349       .  S
C986        C987   1.421       .  A
C986        F991   1.346       .  S
C987        C988   1.401       .  A
C988        F989   1.348       .  S
C993        C994   1.419       .  A
C993        C998   1.418       .  A
C993       F1000   1.357       .  S
C994        C995   1.408       .  A
C995        C996   1.415       .  A
C995       F1002   1.350       .  S
C996        C997   1.434       .  A
C996       F1001   1.355       .  S
C997        C998   1.417       .  A
C998        F999   1.344       .  S
C1003      C1004   1.405       .  A
C1003      C1008   1.430       .  A
C1003      F1010   1.341       .  S
C1004      C1005   1.388       .  A
C1005      C1006   1.323       .  A
C1005      F1012   1.328       .  S
C1006      C1007   1.385       .  A
C1006      F1011   1.333       .  S
C1007      C1008   1.405       .  A
C1008      F1009   1.337       .  S
C1013      C1014   1.436       .  A
C1013      C1018   1.413       .  A
C1013      F1020   1.356       .  S
C1014      C1015   1.417       .  A
C1015      C1016   1.423       .  A
C1015      F1022   1.342       .  S
C1016      C1017   1.416       .  A
C1016      F1021   1.358       .  S
C1017      C1018   1.407       .  A
C1018      F1019   1.353       .  S
C1023      C1024   1.427       .  A
C1023      C1028   1.418       .  A
C1023      F1030   1.344       .  S
C1024      C1025   1.427       .  A
C1025      C1026   1.424       .  A
C1025      F1032   1.356       .  S
C1026      C1027   1.408       .  A
C1026      F1031   1.349       .  S
C1027      C1028   1.423       .  A
C1028      F1029   1.357       .  S
C1033      C1034   1.425       .  A
C1033      C1038   1.421       .  A
C1033      F1040   1.352       .  S
C1034      C1035   1.417       .  A
C1035      C1036   1.424       .  A
C1035      F1042   1.353       .  S
C1036      C1037   1.420       .  A
C1036      F1041   1.355   1_545  S
C1037      C1038   1.408       .  A
C1038      F1039   1.358       .  S
C1043      C1044   1.428       .  A
C1043      C1048   1.411       .  A
C1043      F1050   1.353       .  S
C1044      C1045   1.422       .  A
C1045      C1046   1.397       .  A
C1045      F1052   1.346       .  S
C1046      C1047   1.423       .  A
C1046      F1051   1.358       .  S
C1047      C1048   1.404       .  A
C1048      F1049   1.352       .  S
C1053      C1054   1.414       .  A
C1053      C1058   1.412       .  A
C1053      F1060   1.350       .  S
C1054      C1055   1.418       .  A
C1055      C1056   1.413       .  A
C1055      F1062   1.356       .  S
C1056      C1057   1.417       .  A
C1056      F1061   1.348       .  S
C1057      C1058   1.420       .  A
C1058      F1059   1.354       .  S
C1063      C1064   1.412       .  A
C1063      C1068   1.407       .  A
C1063      F1070   1.346       .  S
C1064      C1065   1.431       .  A
C1065      C1066   1.411       .  A
C1065      F1072   1.341       .  S
C1066      C1067   1.422       .  A
C1066      F1071   1.358       .  S
C1067      C1068   1.413       .  A
C1068      F1069   1.345       .  S
C1073      C1074   1.394       .  A
C1073      C1078   1.325       .  A
C1073      F1080   1.343       .  S
C1074      C1075   1.426       .  A
C1075      C1076   1.439       .  A
C1075      F1082   1.354       .  S
C1076      C1077   1.426       .  A
C1076      F1081   1.354       .  S
C1077      C1078   1.398       .  A
C1078      F1079   1.343       .  S
C1083      C1084   1.419       .  A
C1083      C1088   1.424       .  A
C1083      F1090   1.356       .  S
C1084      C1085   1.411       .  A
C1085      C1086   1.416       .  A
C1085      F1092   1.358       .  S
C1086      C1087   1.421       .  A
C1086      F1091   1.354       .  S
C1087      C1088   1.413       .  A
C1088      F1089   1.356       .  S
C1093      C1113   1.530       .  S
C1093      C1223   1.592       .  S
C1093      C1230   1.565       .  S
C1093      C1243   1.601       .  S
C1094      C1128   1.525       .  S
C1094      C1200   1.607       .  S
C1094      C1213   1.616       .  S
C1094      C1240   1.627       .  S
C1095      C1111   1.531       .  S
C1095      C1193   1.629       .  S
C1095      C1210   1.625       .  S
C1095      C1220   1.616       .  S
C1096      C1126   1.533       .  S
C1096      C1190   1.604       .  S
C1096      C1203   1.577       .  S
C1096      C1233   1.565       .  S
C1097      C1125   1.549       .  S
C1097      C1160   1.548       .  S
C1097      C1170   1.609       .  S
C1097      C1183   1.602       .  S
C1098      C1112   1.530       .  S
C1098      C1143   1.597       .  S
C1098      C1150   1.629       .  S
C1098      C1180   1.642       .  S
C1099      C1127   1.554       .  S
C1099      C1130   1.605       .  S
C1099      C1153   1.601       .  S
C1099      C1163   1.546       .  S
C1100      C1114   1.539       .  S
C1100      C1133   1.639       .  S
C1100      C1140   1.607       .  S
C1100      C1173   1.634       .  S
O1101      C1111   1.284       .  A
O1102      C1112   1.284       .  A
O1102     Cu1109   2.053       .  S
O1103      C1113   1.274       .  A
O1103     Cu1109   1.980   1_556  S
O1104      C1114   1.273       .  A
O1105      C1114   1.288       .  A
O1106      C1113   1.287       .  A
O1106     Cu1110   2.081       .  S
O1107      C1112   1.274       .  A
O1107     Cu1110   1.998   1_554  S
O1108      C1111   1.276       .  A
Cu1109     O1257   2.046   1_554  S
Cu1109     O1260   1.999       .  S
Cu1109    Cu1110   2.356   1_554  S
Cu1110     O1261   2.076   1_556  S
Cu1110     O1264   2.014       .  S
O1115      C1125   1.286       .  A
O1116      C1126   1.286       .  A
O1116     Cu1123   2.070       .  S
O1117      C1127   1.280       .  A
O1117     Cu1123   2.032       .  S
O1118      C1128   1.279       .  A
O1119      C1128   1.280       .  A
O1120      C1127   1.285       .  A
O1120     Cu1124   2.063       .  S
O1121      C1126   1.277       .  A
O1121     Cu1124   2.009       .  S
O1122      C1125   1.277       .  A
Cu1123    Cu1124   2.354       .  S
C1129      C1130   1.413       .  A
C1129      C1134   1.425       .  A
C1129      F1136   1.349       .  S
C1130      C1131   1.420       .  A
C1131      C1132   1.416       .  A
C1131      F1138   1.357       .  S
C1132      C1133   1.425       .  A
C1133      C1134   1.426       .  A
C1134      F1135   1.355       .  S
F1137      C1288   1.343       .  S
C1139      C1140   1.429       .  A
C1139      C1144   1.404       .  A
C1139      F1146   1.344       .  S
C1140      C1141   1.411       .  A
C1141      C1142   1.411       .  A
C1141      F1148   1.349       .  S
C1142      C1143   1.421       .  A
C1142      F1147   1.346       .  S
C1143      C1144   1.401       .  A
C1144      F1145   1.348       .  S
C1149      C1150   1.419       .  A
C1149      C1154   1.418       .  A
C1149      F1156   1.357       .  S
C1150      C1151   1.408       .  A
C1151      C1152   1.415       .  A
C1151      F1158   1.350       .  S
C1152      C1153   1.434       .  A
C1152      F1157   1.355       .  S
C1153      C1154   1.417       .  A
C1154      F1155   1.344       .  S
C1159      C1160   1.405       .  A
C1159      C1164   1.430       .  A
C1159      F1166   1.341       .  S
C1160      C1161   1.388       .  A
C1161      C1162   1.323       .  A
C1161      F1168   1.328       .  S
C1162      C1163   1.385       .  A
C1162      F1167   1.333       .  S
C1163      C1164   1.405       .  A
C1164      F1165   1.337       .  S
C1169      C1170   1.436       .  A
C1169      C1174   1.413       .  A
C1169      F1176   1.356       .  S
C1170      C1171   1.417       .  A
C1171      C1172   1.423       .  A
C1171      F1178   1.342       .  S
C1172      C1173   1.416       .  A
C1172      F1177   1.358       .  S
C1173      C1174   1.407       .  A
C1174      F1175   1.353       .  S
C1179      C1180   1.427       .  A
C1179      C1184   1.418       .  A
C1179      F1186   1.344       .  S
C1180      C1181   1.427       .  A
C1181      C1182   1.424       .  A
C1181      F1188   1.356       .  S
C1182      C1183   1.408       .  A
C1182      F1187   1.349       .  S
C1183      C1184   1.423       .  A
C1184      F1185   1.357       .  S
C1189      C1190   1.425       .  A
C1189      C1194   1.421       .  A
C1189      F1196   1.352       .  S
C1190      C1191   1.417       .  A
C1191      C1192   1.424       .  A
C1191      F1198   1.353       .  S
C1192      C1193   1.420       .  A
C1192      F1197   1.355       .  S
C1193      C1194   1.408       .  A
C1194      F1195   1.358       .  S
C1199      C1200   1.428       .  A
C1199      C1204   1.411       .  A
C1199      F1206   1.353       .  S
C1200      C1201   1.422       .  A
C1201      C1202   1.397       .  A
C1201      F1208   1.346       .  S
C1202      C1203   1.423       .  A
C1202      F1207   1.358       .  S
C1203      C1204   1.404       .  A
C1204      F1205   1.352       .  S
C1209      C1210   1.414       .  A
C1209      C1214   1.412       .  A
C1209      F1216   1.350       .  S
C1210      C1211   1.418       .  A
C1211      C1212   1.413       .  A
C1211      F1218   1.356       .  S
C1212      C1213   1.417       .  A
C1212      F1217   1.348       .  S
C1213      C1214   1.420       .  A
C1214      F1215   1.354       .  S
C1219      C1220   1.412       .  A
C1219      C1224   1.407       .  A
C1219      F1226   1.346       .  S
C1220      C1221   1.431       .  A
C1221      C1222   1.411       .  A
C1221      F1228   1.341       .  S
C1222      C1223   1.422       .  A
C1222      F1227   1.358       .  S
C1223      C1224   1.413       .  A
C1224      F1225   1.345       .  S
C1229      C1230   1.394       .  A
C1229      C1234   1.325       .  A
C1229      F1236   1.343       .  S
C1230      C1231   1.426       .  A
C1231      C1232   1.439       .  A
C1231      F1238   1.354       .  S
C1232      C1233   1.426       .  A
C1232      F1237   1.354       .  S
C1233      C1234   1.398       .  A
C1234      F1235   1.343       .  S
C1239      C1240   1.419       .  A
C1239      C1244   1.424       .  A
C1239      F1246   1.356       .  S
C1240      C1241   1.411       .  A
C1241      C1242   1.416       .  A
C1241      F1248   1.358       .  S
C1242      C1243   1.421       .  A
C1242      F1247   1.354       .  S
C1243      C1244   1.413       .  A
C1244      F1245   1.356       .  S
C1249      C1269   1.530       .  S
C1249      C1379   1.592       .  S
C1249      C1386   1.565       .  S
C1249      C1399   1.601       .  S
C1250      C1284   1.525       .  S
C1250      C1356   1.607       .  S
C1250      C1369   1.616       .  S
C1250      C1396   1.627       .  S
C1251      C1267   1.531       .  S
C1251      C1349   1.629       .  S
C1251      C1366   1.625       .  S
C1251      C1376   1.616       .  S
C1252      C1282   1.533       .  S
C1252      C1346   1.604       .  S
C1252      C1359   1.577       .  S
C1252      C1389   1.565       .  S
C1253      C1281   1.549       .  S
C1253      C1316   1.548       .  S
C1253      C1326   1.609       .  S
C1253      C1339   1.602       .  S
C1254      C1268   1.530       .  S
C1254      C1299   1.597       .  S
C1254      C1306   1.629       .  S
C1254      C1336   1.642       .  S
C1255      C1283   1.554       .  S
C1255      C1286   1.605       .  S
C1255      C1309   1.601       .  S
C1255      C1319   1.546       .  S
C1256      C1270   1.539       .  S
C1256      C1289   1.639       .  S
C1256      C1296   1.607       .  S
C1256      C1329   1.634       .  S
O1257      C1267   1.284       .  A
O1258      C1268   1.284       .  A
O1258     Cu1265   2.053       .  S
O1259      C1269   1.274       .  A
O1259     Cu1265   1.980   1_556  S
O1260      C1270   1.273       .  A
O1261      C1270   1.288       .  A
O1262      C1269   1.287       .  A
O1262     Cu1266   2.081       .  S
O1263      C1268   1.274       .  A
O1263     Cu1266   1.998   1_554  S
O1264      C1267   1.276       .  A
Cu1265    Cu1266   2.356   1_554  S
O1271      C1281   1.286       .  A
O1272      C1282   1.286       .  A
O1272     Cu1279   2.070       .  S
O1273      C1283   1.280       .  A
O1273     Cu1279   2.032       .  S
O1274      C1284   1.278       .  A
O1275      C1284   1.280       .  A
O1276      C1283   1.285       .  A
O1276     Cu1280   2.063       .  S
O1277      C1282   1.277       .  A
O1277     Cu1280   2.009       .  S
O1278      C1281   1.277       .  A
Cu1279    Cu1280   2.354       .  S
C1285      C1286   1.413       .  A
C1285      C1290   1.425       .  A
C1285      F1292   1.349       .  S
C1286      C1287   1.420       .  A
C1287      C1288   1.416       .  A
C1287      F1294   1.357       .  S
C1288      C1289   1.425       .  A
C1289      C1290   1.426       .  A
C1290      F1291   1.355       .  S
C1295      C1296   1.429       .  A
C1295      C1300   1.404       .  A
C1295      F1302   1.344       .  S
C1296      C1297   1.411       .  A
C1297      C1298   1.411       .  A
C1297      F1304   1.349       .  S
C1298      C1299   1.421       .  A
C1298      F1303   1.346       .  S
C1299      C1300   1.401       .  A
C1300      F1301   1.348       .  S
C1305      C1306   1.419       .  A
C1305      C1310   1.418       .  A
C1305      F1312   1.357       .  S
C1306      C1307   1.408       .  A
C1307      C1308   1.415       .  A
C1307      F1314   1.350       .  S
C1308      C1309   1.434       .  A
C1308      F1313   1.355       .  S
C1309      C1310   1.417       .  A
C1310      F1311   1.344       .  S
C1315      C1316   1.405       .  A
C1315      C1320   1.430       .  A
C1315      F1322   1.341       .  S
C1316      C1317   1.388       .  A
C1317      C1318   1.323       .  A
C1317      F1324   1.328       .  S
C1318      C1319   1.385       .  A
C1318      F1323   1.333       .  S
C1319      C1320   1.405       .  A
C1320      F1321   1.337       .  S
C1325      C1326   1.436       .  A
C1325      C1330   1.413       .  A
C1325      F1332   1.356       .  S
C1326      C1327   1.417       .  A
C1327      C1328   1.423       .  A
C1327      F1334   1.342       .  S
C1328      C1329   1.416       .  A
C1328      F1333   1.358       .  S
C1329      C1330   1.407       .  A
C1330      F1331   1.353       .  S
C1335      C1336   1.427       .  A
C1335      C1340   1.418       .  A
C1335      F1342   1.344       .  S
C1336      C1337   1.427       .  A
C1337      C1338   1.424       .  A
C1337      F1344   1.356       .  S
C1338      C1339   1.408       .  A
C1338      F1343   1.349       .  S
C1339      C1340   1.423       .  A
C1340      F1341   1.357       .  S
C1345      C1346   1.425       .  A
C1345      C1350   1.421       .  A
C1345      F1352   1.352       .  S
C1346      C1347   1.417       .  A
C1347      C1348   1.424       .  A
C1347      F1354   1.353       .  S
C1348      C1349   1.420       .  A
C1348      F1353   1.355       .  S
C1349      C1350   1.408       .  A
C1350      F1351   1.358       .  S
C1355      C1356   1.428       .  A
C1355      C1360   1.411       .  A
C1355      F1362   1.353       .  S
C1356      C1357   1.422       .  A
C1357      C1358   1.397       .  A
C1357      F1364   1.346       .  S
C1358      C1359   1.423       .  A
C1358      F1363   1.358       .  S
C1359      C1360   1.404       .  A
C1360      F1361   1.352       .  S
C1365      C1366   1.414       .  A
C1365      C1370   1.412       .  A
C1365      F1372   1.350       .  S
C1366      C1367   1.418       .  A
C1367      C1368   1.413       .  A
C1367      F1374   1.356       .  S
C1368      C1369   1.417       .  A
C1368      F1373   1.348       .  S
C1369      C1370   1.420       .  A
C1370      F1371   1.354       .  S
C1375      C1376   1.412       .  A
C1375      C1380   1.407       .  A
C1375      F1382   1.346       .  S
C1376      C1377   1.431       .  A
C1377      C1378   1.411       .  A
C1377      F1384   1.341       .  S
C1378      C1379   1.422       .  A
C1378      F1383   1.358       .  S
C1379      C1380   1.413       .  A
C1380      F1381   1.345       .  S
C1385      C1386   1.394       .  A
C1385      C1390   1.325       .  A
C1385      F1392   1.343       .  S
C1386      C1387   1.426       .  A
C1387      C1388   1.439       .  A
C1387      F1394   1.354       .  S
C1388      C1389   1.426       .  A
C1388      F1393   1.354       .  S
C1389      C1390   1.398       .  A
C1390      F1391   1.343       .  S
C1395      C1396   1.419       .  A
C1395      C1400   1.424       .  A
C1395      F1402   1.356       .  S
C1396      C1397   1.411       .  A
C1397      C1398   1.416       .  A
C1397      F1404   1.358       .  S
C1398      C1399   1.421       .  A
C1398      F1403   1.354       .  S
C1399      C1400   1.413       .  A
C1400      F1401   1.356       .  S
