geometry optimzed in LAMMPS
_audit_creation_date              2020-12-01 
_audit_creation_method            'lammps2cif' 
_symmetry_space_group_name_H-M    'P1' 
_symmetry_Int_Tables_number       1 
_symmetry_cell_setting            triclinic 
loop_ 
_symmetry_equiv_pos_as_xyz 
  x,y,z 
_cell_length_a                    49.75751389 
_cell_length_b                    49.82194982707801 
_cell_length_c                    49.72349358932348 
_cell_angle_alpha                 90.05330858767391 
_cell_angle_beta                  90.07571492344715 
_cell_angle_gamma                 89.99198826585493 
loop_ 
_atom_site_label 
_atom_site_type_symbol 
_atom_site_fract_x 
_atom_site_fract_y 
_atom_site_fract_z 
_atom_site_charge 
N1          N  0.21031208  0.28438686  0.23406842    -0.26400
N2          N  0.19905807  0.27287434  0.25513353    -0.34300
C3          C  0.17746559  0.28741982  0.26246140     0.01900
C4          C  0.17495977  0.30924687  0.24515867     0.07900
C5          C  0.19621164  0.30633991  0.22731768    -0.05200
H6          H  0.16483788  0.28257935  0.27946130     0.08600
H7          H  0.20134616  0.31894453  0.21046174     0.09800
Cu8        Cu  0.21437563  0.23828713  0.27303143     0.44200
Cu9        Cu  0.24518943  0.27107547  0.21593336     0.42000
Cu10       Cu  0.27854525  0.21484031  0.24538807     0.43900
N11         N  0.23557860  0.20513411  0.28731123    -0.33800
N12         N  0.25896343  0.19713403  0.27753275    -0.28100
C13         C  0.26765511  0.17582448  0.29162412    -0.04200
C14         C  0.24887516  0.16996440  0.31125047     0.08000
C15         C  0.22872093  0.18889659  0.30781060     0.01800
H16         H  0.28614301  0.16518310  0.28750586     0.09500
H17         H  0.21062166  0.19103060  0.31964173     0.08600
N18         N  0.29385457  0.23564193  0.21279238    -0.35300
N19         N  0.28135203  0.25632827  0.20190463    -0.27500
C20         C  0.29587143  0.26550337  0.18111043    -0.02700
C21         C  0.31867887  0.24973210  0.17858743     0.05900
C22         C  0.31673820  0.23105952  0.19918329     0.04000
H23         H  0.29024534  0.28268121  0.16902902     0.09100
H24         H  0.33068952  0.21499249  0.20370852     0.07900
O25         O  0.97547519  0.52792399  0.27156541    -0.72100
O26         O  0.02762003  0.46663012  0.27027121    -0.73100
O27         O  0.03187689  0.52336099  0.26884951    -0.61700
O28         O  0.97099751  0.47163939  0.27324345    -0.70100
O29         O  0.96813706  0.47063726  0.22879371    -0.69700
O30         O  0.03006349  0.52218659  0.22432112    -0.60900
O31         O  0.02500621  0.46530766  0.22582741    -0.73400
O32         O  0.97332582  0.52725212  0.22707193    -0.72200
Cu33       Cu  0.00161927  0.49738046  0.27247928     1.04600
Cu34       Cu  0.99908723  0.49626414  0.22491441     1.04300
C35         C  0.96603704  0.53727979  0.24958713     0.94100
C36         C  0.03462433  0.45619528  0.24785084     0.93200
C37         C  0.04044108  0.53131102  0.24601463     0.85400
C38         C  0.95960643  0.46317886  0.25185756     0.91700
N39         N  0.71787137  0.73693741  0.20593087    -0.26400
N40         N  0.70778441  0.75904435  0.21662080    -0.34300
C41         C  0.68627070  0.76678144  0.20229316     0.01900
C42         C  0.68234242  0.74866467  0.18152117     0.07900
C43         C  0.70292649  0.73006111  0.18443512    -0.05200
H44         H  0.67460680  0.78468574  0.20666473     0.08600
H45         H  0.70660892  0.71250046  0.17202681     0.09800
Cu46       Cu  0.72289276  0.77766324  0.25057324     0.44200
Cu47       Cu  0.75125591  0.71724289  0.22155276     0.42000
Cu48       Cu  0.77619146  0.74389572  0.28521510     0.43900
N49         N  0.73958675  0.79177231  0.28593773    -0.33800
N50         N  0.75893723  0.77910420  0.29893879    -0.28100
C51         C  0.76549147  0.79321492  0.32103503    -0.04200
C52         C  0.74938704  0.81591945  0.32208509     0.08000
C53         C  0.73327162  0.81431526  0.29937669     0.01800
H54         H  0.78135642  0.78761035  0.33480356     0.09500
H55         H  0.71795536  0.82838813  0.29308698     0.08600
N56         N  0.79276514  0.71125294  0.26556245    -0.35300
N57         N  0.78417151  0.70187079  0.24222866    -0.27500
C58         C  0.80026261  0.68159715  0.23455466    -0.02700
C59         C  0.82004382  0.67796564  0.25396562     0.05900
C60         C  0.81440495  0.69715206  0.27340698     0.04000
H61         H  0.79792482  0.67069284  0.21587754     0.09100
H62         H  0.82499874  0.70082056  0.29202529     0.07900
O63         O  0.22947943  0.02546936  0.46961349    -0.72100
O64         O  0.22692271  0.97199642  0.52952109    -0.73100
O65         O  0.23058548  0.02850331  0.52636835    -0.61700
O66         O  0.22587680  0.96875427  0.47260147    -0.70100
O67         O  0.27026339  0.96514561  0.47274393    -0.69700
O68         O  0.27503228  0.02636152  0.52524804    -0.60900
O69         O  0.27137751  0.96971098  0.52965380    -0.73400
O70         O  0.27389588  0.02173962  0.46786524    -0.72200
Cu71       Cu  0.22670249  0.99877372  0.49952609     1.04600
Cu72       Cu  0.27421837  0.99565587  0.49884398     1.04300
C73         C  0.25198540  0.03195448  0.45915811     0.94100
C74         C  0.24869906  0.96253307  0.53931729     0.93200
C75         C  0.25347307  0.03688629  0.53445792     0.85400
C76         C  0.24730983  0.95737839  0.46420055     0.91700
O77         O  0.77625279  0.02833492  0.52830169    -0.72100
O78         O  0.77535480  0.97208589  0.47055706    -0.73100
O79         O  0.77339984  0.02925559  0.47182347    -0.61700
O80         O  0.77809039  0.97125221  0.52768686    -0.70100
O81         O  0.73363976  0.96915200  0.52886538    -0.69700
O82         O  0.72896718  0.02834342  0.47438829    -0.60900
O83         O  0.73087415  0.97121263  0.47184921    -0.73400
O84         O  0.73181769  0.02599491  0.53126813    -0.72200
Cu85       Cu  0.77730795  0.00022281  0.49947590     1.04600
Cu86       Cu  0.72977342  0.99858179  0.50161911     1.04300
C87         C  0.75419357  0.03610564  0.53885149     0.94100
C88         C  0.75302216  0.96271838  0.46197843     0.93200
C89         C  0.75049740  0.03852333  0.46479925     0.85400
C90         C  0.75654923  0.96104209  0.53722493     0.91700
N91         N  0.20909123  0.71519778  0.73805774    -0.26400
N92         N  0.21663946  0.70655533  0.76201237    -0.34300
C93         C  0.20238144  0.68456465  0.76828857     0.01900
C94         C  0.18517416  0.67892408  0.74715326     0.07900
C95         C  0.19002691  0.69870818  0.72825079    -0.05200
H96         H  0.20392060  0.67389187  0.78716843     0.08600
H97         H  0.17933852  0.70187185  0.70952189     0.09800
Cu98       Cu  0.24460280  0.72611553  0.78580085     0.44200
Cu99       Cu  0.22236776  0.75118103  0.72219597     0.42000
Cu100      Cu  0.26365856  0.79328917  0.76641930     0.43900
N101        N  0.27292481  0.74874611  0.80620500    -0.33800
N102        N  0.27941815  0.77366749  0.79984298    -0.28100
C103        C  0.29943883  0.78191421  0.81614680    -0.04200
C104        C  0.30603008  0.76100985  0.83333101     0.08000
C105        C  0.28877939  0.74035229  0.82639946     0.01800
H106        H  0.30962907  0.80101260  0.81439016     0.09500
H107        H  0.28836098  0.72035585  0.83480621     0.08600
N108        N  0.24911707  0.80527344  0.72903305    -0.35300
N109        N  0.23461122  0.78979579  0.71305649    -0.27500
C110        C  0.22933797  0.80308048  0.69019478    -0.02700
C111        C  0.24114273  0.82832569  0.69147168     0.05900
C112        C  0.25354310  0.82882845  0.71660443     0.04000
H113        H  0.21784819  0.79456872  0.67380560     0.09100
H114        H  0.26546997  0.84468678  0.72536284     0.07900
O115        O  0.97295083  0.47300732  0.77390517    -0.72100
O116        O  0.03374551  0.52666619  0.77320353    -0.73100
O117        O  0.97668268  0.52997205  0.77647897    -0.61700
O118        O  0.03014463  0.46975181  0.77114399    -0.70100
O119        O  0.02856322  0.47191107  0.72669125    -0.69700
O120        O  0.97390330  0.53122703  0.73203526    -0.60900
O121        O  0.03055893  0.52892346  0.72876729    -0.73400
O122        O  0.97172415  0.47460033  0.72941018    -0.72200
Cu123      Cu  0.00347514  0.49976609  0.77526467     1.04600
Cu124      Cu  0.00113111  0.50171466  0.72772740     1.04300
C125        C  0.96277298  0.46527647  0.75154551     0.94100
C126        C  0.04148926  0.53647198  0.75073895     0.93200
C127        C  0.96663918  0.54003188  0.75507057     0.85400
C128        C  0.03798358  0.46133683  0.74815533     0.91700
N129        N  0.76694363  0.21326196  0.70912892    -0.26400
N130        N  0.74444679  0.20332306  0.71912141    -0.34300
C131        C  0.73721186  0.18166044  0.70470317     0.01900
C132        C  0.75605755  0.17767262  0.68460859     0.07900
C133        C  0.77474723  0.19800005  0.68819483    -0.05200
H134        H  0.71947140  0.16977081  0.70863448     0.08600
H135        H  0.79219779  0.20200841  0.67588909     0.09800
Cu136      Cu  0.72381269  0.22005819  0.75123118     0.44200
Cu137      Cu  0.78455486  0.24847303  0.72296705     0.42000
Cu138      Cu  0.74675241  0.28493971  0.77374337     0.43900
N139        N  0.70606806  0.24110410  0.78252260    -0.33800
N140        N  0.71403075  0.26520404  0.79026945    -0.28100
C141        C  0.69829332  0.27360312  0.81057164    -0.04200
C142        C  0.67966312  0.25370828  0.81608374     0.08000
C143        C  0.68519641  0.23339680  0.79785191     0.01800
H144        H  0.70059962  0.29257181  0.82089125     0.09500
H145        H  0.67462642  0.21458027  0.79555528     0.08600
N146        N  0.78195304  0.29899435  0.75649683    -0.35300
N147        N  0.79589746  0.28559304  0.73830558    -0.27500
C148        C  0.81794394  0.29981491  0.73192603    -0.02700
C149        C  0.81808741  0.32331603  0.74697721     0.05900
C150        C  0.79478357  0.32205874  0.76220534     0.04000
H151        H  0.83253898  0.29342348  0.71717500     0.09100
H152        H  0.78789749  0.33651032  0.77690512     0.07900
O153        O  0.47128801  0.72698956  0.97214130    -0.72100
O154        O  0.52916692  0.72728547  0.02904094    -0.73100
O155        O  0.47192198  0.72700821  0.02923682    -0.61700
O156        O  0.52891799  0.72705605  0.97180008    -0.70100
O157        O  0.52856655  0.77153055  0.97177430    -0.69700
O158        O  0.47212535  0.77147870  0.02941171    -0.60900
O159        O  0.52903560  0.77173141  0.02886272    -0.73400
O160        O  0.47161334  0.77147788  0.97232131    -0.72200
Cu161      Cu  0.50035597  0.72550298  0.00052159     1.04600
Cu162      Cu  0.50034420  0.77304762  0.00056202     1.04300
C163        C  0.46210716  0.74935070  0.96344960     0.94100
C164        C  0.53815019  0.74960994  0.03808408     0.93200
C165        C  0.46299833  0.74925702  0.03843126     0.85400
C166        C  0.53783587  0.74935763  0.96275190     0.91700
O167        O  0.53051292  0.23413375  0.02704742    -0.72100
O168        O  0.47207253  0.23508624  0.97199786    -0.73100
O169        O  0.52890597  0.23493939  0.96996041    -0.61700
O170        O  0.47358389  0.23468180  0.02870606    -0.70100
O171        O  0.47339497  0.27913738  0.02875557    -0.69700
O172        O  0.53009559  0.27943740  0.97136598    -0.60900
O173        O  0.47260365  0.27953532  0.97174533    -0.73400
O174        O  0.53065831  0.27856294  0.02842228    -0.72200
Cu175      Cu  0.50130759  0.23320643  0.99941290     1.04600
Cu176      Cu  0.50172499  0.28074930  0.00007632     1.04300
C177        C  0.53979148  0.25601545  0.03668016     0.94100
C178        C  0.46286105  0.25733099  0.96320596     0.93200
C179        C  0.53834497  0.25724084  0.96148743     0.85400
C180        C  0.46440706  0.25688329  0.03778139     0.91700
N181        N  0.71319832  0.73717893  0.79232374    -0.26400
N182        N  0.70136863  0.75706955  0.77931121    -0.34300
C183        C  0.67942475  0.76474350  0.79313986     0.01900
C184        C  0.67754094  0.74903052  0.81605663     0.07900
C185        C  0.69931716  0.73182546  0.81483342    -0.05200
H186        H  0.66650033  0.78124839  0.78747809     0.08600
H187        H  0.70485482  0.71665424  0.82936773     0.09800
Cu188      Cu  0.71730988  0.77460593  0.74495943     0.44200
Cu189      Cu  0.74850998  0.71903591  0.78012344     0.42000
Cu190      Cu  0.78234752  0.74932442  0.72371490     0.43900
N191        N  0.73997110  0.79157561  0.71430352    -0.33800
N192        N  0.76382494  0.78266753  0.70682752    -0.28100
C193        C  0.77347937  0.79870729  0.68735403    -0.04200
C194        C  0.75485280  0.81885225  0.68222040     0.08000
C195        C  0.73377760  0.81342549  0.69972029     0.01800
H196        H  0.79283253  0.79593285  0.67786411     0.09500
H197        H  0.71503151  0.82417158  0.70170875     0.08600
N198        N  0.79731594  0.71658945  0.74479061    -0.35300
N199        N  0.78499593  0.70560092  0.76551473    -0.27500
C200        C  0.80005367  0.68531733  0.77505005    -0.02700
C201        C  0.82318752  0.68319954  0.75950883     0.05900
C202        C  0.82052276  0.70351609  0.74049067     0.04000
H203        H  0.79432955  0.67341391  0.79221692     0.09100
H204        H  0.83427969  0.70855692  0.72447714     0.07900
N205        N  0.75642212  0.22054422  0.30091573    -0.26400
N206        N  0.73443668  0.21026031  0.29013194    -0.34300
C207        C  0.72626386  0.18944501  0.30518872     0.01900
C208        C  0.74406201  0.18628949  0.32646556     0.07900
C209        C  0.76288301  0.20650691  0.32305594    -0.05200
H210        H  0.70837068  0.17787159  0.30098784     0.08600
H211        H  0.78017727  0.21067535  0.33557250     0.09800
Cu212      Cu  0.71645598  0.22453952  0.25530207     0.44200
Cu213      Cu  0.77621280  0.25363234  0.28576153     0.42000
Cu214      Cu  0.74797790  0.28206617  0.22521482     0.43900
N215        N  0.70330619  0.24191405  0.21974376    -0.33800
N216        N  0.71513007  0.26292741  0.20875179    -0.28100
C217        C  0.70212993  0.26958507  0.18605316    -0.04200
C218        C  0.68104708  0.25180168  0.18235679     0.08000
C219        C  0.68237067  0.23459400  0.20425536     0.01800
H220        H  0.70737569  0.28660008  0.17366292     0.09500
H221        H  0.66919685  0.21787424  0.20860594     0.08600
N222        N  0.77972249  0.29875882  0.24596162    -0.35300
N223        N  0.79013700  0.28838547  0.26806426    -0.27500
C224        C  0.81022248  0.30422058  0.27667021    -0.02700
C225        C  0.81247773  0.32571324  0.25916747     0.05900
C226        C  0.79286402  0.32145589  0.23985007     0.04000
H227        H  0.82211557  0.30039792  0.29448391     0.09100
H228        H  0.78868673  0.33350823  0.22228241     0.07900
N229        N  0.28655666  0.26318116  0.79180089    -0.26400
N230        N  0.29620533  0.23991000  0.78349026    -0.34300
C231        C  0.31682147  0.23271831  0.79938868     0.01900
C232        C  0.32048169  0.25245102  0.81871592     0.07900
C233        C  0.30080465  0.27141991  0.81328656    -0.05200
H234        H  0.32781899  0.21412594  0.79727659     0.08600
H235        H  0.29710268  0.28991444  0.82409185     0.09800
Cu236      Cu  0.28090791  0.21867832  0.75114289     0.44200
Cu237      Cu  0.25390435  0.28204464  0.77398047     0.42000
Cu238      Cu  0.22250332  0.24733952  0.71813007     0.43900
N239        N  0.26302499  0.20202921  0.71745352    -0.33800
N240        N  0.24173207  0.21242725  0.70545294    -0.28100
C241        C  0.23594541  0.19766251  0.68357070    -0.04200
C242        C  0.25452135  0.17695089  0.68154026     0.08000
C243        C  0.27137010  0.18042501  0.70351786     0.01800
H244        H  0.21955220  0.20201278  0.66993287     0.09500
H245        H  0.28906955  0.16890704  0.70855236     0.08600
N246        N  0.20808770  0.28322674  0.73407068    -0.35300
N247        N  0.21975532  0.29582000  0.75435650    -0.27500
C248        C  0.20555119  0.31797037  0.76033032    -0.02700
C249        C  0.18381023  0.31970535  0.74288446     0.05900
C250        C  0.18612117  0.29715176  0.72656776     0.04000
H251        H  0.21043455  0.33126195  0.77681963     0.09100
H252        H  0.17281559  0.29120004  0.71040169     0.07900
N253        N  0.28396899  0.73768972  0.20619432    -0.26400
N254        N  0.29494754  0.75829213  0.21881938    -0.34300
C255        C  0.31706959  0.76606081  0.20536145     0.01900
C256        C  0.32016884  0.74953220  0.18308540     0.07900
C257        C  0.29872187  0.73181944  0.18435893    -0.05200
H258        H  0.32930621  0.78311168  0.21092448     0.08600
H259        H  0.29399863  0.71587505  0.17033862     0.09800
Cu260      Cu  0.27781559  0.77604191  0.25242863     0.44200
Cu261      Cu  0.24851993  0.71953649  0.21822606     0.42000
Cu262      Cu  0.20973579  0.75467051  0.26862743     0.43900
N263        N  0.25451685  0.79298813  0.28254913    -0.33800
N264        N  0.22949243  0.78592156  0.28783973    -0.28100
C265        C  0.22012238  0.80118852  0.30807954    -0.04200
C266        C  0.24030666  0.81870091  0.31617867     0.08000
C267        C  0.26177398  0.81281544  0.29936004     0.01800
H268        H  0.20001025  0.79947054  0.31605299     0.09500
H269        H  0.28148457  0.82194897  0.29944602     0.08600
N270        N  0.19714505  0.71949722  0.25021075    -0.35300
N271        N  0.21164624  0.70635207  0.23227682    -0.27500
C272        C  0.19889338  0.68350259  0.22566440    -0.02700
C273        C  0.17510101  0.68214086  0.24006828     0.05900
C274        C  0.17473158  0.70537876  0.25545405     0.04000
H275        H  0.20658805  0.66885766  0.21156529     0.09100
H276        H  0.15995428  0.71113775  0.27030181     0.07900
C277        C  0.38391689  0.23987802  0.85933997    -0.27400
C278        C  0.37844185  0.25400559  0.88311341     0.06300
C279        C  0.35383886  0.26759971  0.88567041     0.25900
C280        C  0.33511188  0.26704152  0.86465728    -0.11800
C281        C  0.34056360  0.25289832  0.84077935    -0.25800
C282        C  0.36528654  0.23932924  0.83832473     0.36700
C283        C  0.39891452  0.25495332  0.90469991     0.06300
F284        F  0.34771654  0.28094685  0.90867333    -0.19600
H285        H  0.31617055  0.27741630  0.86725277     0.16100
F286        F  0.37202159  0.22632448  0.81532170    -0.23300
H287        H  0.40298128  0.22966045  0.85683795     0.17900
C288        C  0.40986813  0.23115801  0.91510736     0.25900
C289        C  0.43048213  0.23220156  0.93414640    -0.11800
C290        C  0.44069481  0.25697164  0.94319652    -0.25900
C291        C  0.42932803  0.28083346  0.93305151     0.36800
C292        C  0.40860441  0.27972960  0.91402094    -0.27500
F293        F  0.40048074  0.20687529  0.90698533    -0.19600
H294        H  0.43852984  0.21346651  0.94170729     0.16100
F295        F  0.43831086  0.30523528  0.94121812    -0.23300
H296        H  0.40050928  0.29828768  0.90605172     0.17900
C297        C  0.64702732  0.26389230  0.11499816    -0.27400
C298        C  0.62143188  0.25311167  0.11958234     0.06300
C299        C  0.61572870  0.24129410  0.14456991     0.25900
C300        C  0.63526622  0.24074172  0.16477912    -0.11800
C301        C  0.66086106  0.25184248  0.16040419    -0.25800
C302        C  0.66667036  0.26315536  0.13508653     0.36700
C303        C  0.60087183  0.25397624  0.09813105     0.06300
F304        F  0.59102739  0.23092170  0.14965708    -0.19600
H305        H  0.63012815  0.23205145  0.18403977     0.16100
F306        F  0.69148271  0.27283466  0.12933495    -0.23300
H307        H  0.65190415  0.27258653  0.09564561     0.17900
C308        C  0.59291257  0.27849345  0.08668460     0.25900
C309        C  0.57309968  0.27904446  0.06670939    -0.11800
C310        C  0.56108656  0.25514156  0.05759017    -0.25900
C311        C  0.56951384  0.23054701  0.06887785     0.36800
C312        C  0.58909543  0.23010214  0.08901528    -0.27500
F313        F  0.60385124  0.30194403  0.09529017    -0.19600
H314        H  0.56713326  0.29824444  0.05842726     0.16100
F315        F  0.55878872  0.20685083  0.06071026    -0.23300
H316        H  0.59523366  0.21100766  0.09744232     0.17900
C317        C  0.59541734  0.72836222  0.91701300    -0.27400
C318        C  0.59911870  0.75166462  0.90160777     0.06300
C319        C  0.58271453  0.77407673  0.90644732     0.25900
C320        C  0.56299748  0.77315729  0.92642232    -0.11800
C321        C  0.55896029  0.74976317  0.94171295    -0.25800
C322        C  0.57542525  0.72726366  0.93676875     0.36700
C323        C  0.61951593  0.75216340  0.87996968     0.06300
F324        F  0.58601312  0.79698781  0.89207269    -0.19600
H325        H  0.55066541  0.79077132  0.92974128     0.16100
F326        F  0.57251243  0.70432409  0.95117775    -0.23300
H327        H  0.60778680  0.71082991  0.91341942     0.17900
C328        C  0.64661663  0.74644038  0.88548863     0.25900
C329        C  0.66539817  0.74568504  0.86461239    -0.11800
C330        C  0.65754051  0.75084901  0.83795284    -0.25900
C331        C  0.63051307  0.75711493  0.83253335     0.36800
C332        C  0.61171075  0.75770853  0.85340663    -0.27500
F333        F  0.65496331  0.74194934  0.91109619    -0.19600
H334        H  0.68617676  0.74123098  0.86933322     0.16100
F335        F  0.62200271  0.76148438  0.80697087    -0.23300
H336        H  0.59084662  0.76190723  0.84875532     0.17900
C337        C  0.38643594  0.76129469  0.14679622    -0.27400
C338        C  0.38069110  0.75125925  0.12099928     0.06300
C339        C  0.35475806  0.74132642  0.11567819     0.25900
C340        C  0.33525877  0.74105155  0.13588997    -0.11800
C341        C  0.34103609  0.75083458  0.16179238    -0.25800
C342        C  0.36685084  0.76124209  0.16698341     0.36700
C343        C  0.40186964  0.75079114  0.09992497     0.06300
F344        F  0.34807057  0.73231589  0.09078005    -0.19600
H345        H  0.31547499  0.73338320  0.13110037     0.16100
F346        F  0.37361524  0.77044917  0.19176577    -0.23300
H347        H  0.40635431  0.76869575  0.15151909     0.17900
C348        C  0.41753694  0.77366342  0.09454028     0.25900
C349        C  0.43730538  0.77295726  0.07457744    -0.11800
C350        C  0.44203173  0.74944724  0.05964192    -0.25900
C351        C  0.42642181  0.72650490  0.06513318     0.36800
C352        C  0.40661284  0.72725401  0.08506937    -0.27500
F353        F  0.41333326  0.79692636  0.10812736    -0.19600
H354        H  0.44899221  0.79091410  0.07084794     0.16100
F355        F  0.42989006  0.70345311  0.05098249    -0.23300
H356        H  0.39504600  0.70927693  0.08904917     0.17900
C357        C  0.63077151  0.23178621  0.87029154    -0.27400
C358        C  0.61811649  0.25613515  0.87687922     0.06300
C359        C  0.62585916  0.27963408  0.86323816     0.25900
C360        C  0.64596662  0.27867792  0.84362179    -0.11800
C361        C  0.65844205  0.25428572  0.83691652    -0.25800
C362        C  0.65059856  0.23076252  0.85042114     0.36700
C363        C  0.59726148  0.25683096  0.89824227     0.06300
F364        F  0.61356409  0.30340830  0.86839148    -0.19600
H365        H  0.65146723  0.29700656  0.83330601     0.16100
F366        F  0.66272856  0.20693113  0.84518536    -0.23300
H367        H  0.62558797  0.21352264  0.88088768     0.17900
C368        C  0.57637602  0.23777546  0.89867933     0.25900
C369        C  0.55750548  0.23789324  0.91947784    -0.11800
C370        C  0.55871390  0.25729367  0.93991499    -0.25900
C371        C  0.57935249  0.27657693  0.93937254     0.36800
C372        C  0.59852636  0.27618086  0.91880769    -0.27500
F373        F  0.57384433  0.21938586  0.87867828    -0.19600
H374        H  0.54157715  0.22306073  0.91934363     0.16100
F375        F  0.58153945  0.29521700  0.95918837    -0.23300
H376        H  0.61467897  0.29074669  0.91921424     0.17900
C377        C  0.08529627  0.40752986  0.72101264    -0.27400
C378        C  0.09814381  0.39890234  0.74462475     0.06300
C379        C  0.09057638  0.41035043  0.76932601     0.25900
C380        C  0.07083480  0.43029747  0.77027157    -0.11800
C381        C  0.05826539  0.43943776  0.74662230    -0.25800
C382        C  0.06561294  0.42763356  0.72189098     0.36700
C383        C  0.12007223  0.37872322  0.74341117     0.06300
F384        F  0.10214274  0.40205920  0.79262614    -0.19600
H385        H  0.06560379  0.43879340  0.78962948     0.16100
F386        F  0.05395936  0.43551425  0.69850272    -0.23300
H387        H  0.09094089  0.39906147  0.70175273     0.17900
C388        C  0.11625347  0.35361485  0.73107106     0.25900
C389        C  0.13708010  0.33466911  0.73074450    -0.11800
C390        C  0.16217335  0.34040734  0.74256357    -0.25900
C391        C  0.16607111  0.36592507  0.75426653     0.36800
C392        C  0.14518832  0.38468937  0.75476301    -0.27500
F393        F  0.09214057  0.34709385  0.72006566    -0.19600
H394        H  0.13329667  0.31528684  0.72166450     0.16100
F395        F  0.19018043  0.37321846  0.76470083    -0.23300
H396        H  0.14873420  0.40414940  0.76383978     0.17900
C397        C  0.91253790  0.59056015  0.73645145    -0.27400
C398        C  0.90815295  0.60360568  0.76105086     0.06300
C399        C  0.92297262  0.59568225  0.78374824     0.25900
C400        C  0.94198897  0.57505414  0.78168999    -0.11800
C401        C  0.94647701  0.56192754  0.75699656    -0.25800
C402        C  0.93139452  0.56990456  0.73435515     0.36700
C403        C  0.88770317  0.62509662  0.76267464     0.06300
F404        F  0.91942685  0.60824518  0.80772124    -0.19600
H405        H  0.95332153  0.56946618  0.79943809     0.16100
F406        F  0.93441366  0.55749560  0.71023838    -0.23300
H407        H  0.90099998  0.59619210  0.71883374     0.17900
C408        C  0.88925143  0.64751318  0.74573133     0.25900
C409        C  0.86862700  0.66651228  0.74546646    -0.11800
C410        C  0.84573921  0.66351364  0.76185336    -0.25900
C411        C  0.84474496  0.64129353  0.77952845     0.36800
C412        C  0.86560772  0.62242922  0.77990197    -0.27500
F413        F  0.91073738  0.65097375  0.72929891    -0.19600
H414        H  0.87067739  0.68341452  0.73203534     0.16100
F415        F  0.82346589  0.63701229  0.79594062    -0.23300
H416        H  0.86406222  0.60515704  0.79302597     0.17900
C417        C  0.91204730  0.41407339  0.72650599    -0.27400
C418        C  0.89863095  0.40720014  0.75026759     0.06300
C419        C  0.90609059  0.41969872  0.77450125     0.25900
C420        C  0.92695728  0.43856425  0.77486666    -0.11800
C421        C  0.94054282  0.44543366  0.75104650    -0.25800
C422        C  0.93265637  0.43306681  0.72674251     0.36700
C423        C  0.87785559  0.38599232  0.74960158     0.06300
F424        F  0.89379297  0.41302671  0.79790957    -0.19600
H425        H  0.93251351  0.44774485  0.79382449     0.16100
F426        F  0.94511922  0.43884599  0.70317965    -0.23300
H427        H  0.90655693  0.40458072  0.70766770     0.17900
C428        C  0.85139993  0.39108356  0.75794031     0.25900
C429        C  0.83206846  0.37069793  0.75682400    -0.11800
C430        C  0.83877671  0.34485891  0.74746248    -0.25900
C431        C  0.86541228  0.33993248  0.73914721     0.36800
C432        C  0.88458938  0.36038090  0.74007866    -0.27500
F433        F  0.84412783  0.41590382  0.76655672    -0.19600
H434        H  0.81175736  0.37529171  0.76306596     0.16100
F435        F  0.87338129  0.31522561  0.73094825    -0.23300
H436        H  0.90496753  0.35609910  0.73372641     0.17900
C437        C  0.35808638  0.77934122  0.88614003    -0.27400
C438        C  0.37323317  0.75550908  0.88785797     0.06300
C439        C  0.36583692  0.73361561  0.87149300     0.25900
C440        C  0.34375658  0.73553311  0.85420331    -0.11800
C441        C  0.32895172  0.75943492  0.85225467    -0.25800
C442        C  0.33641440  0.78146707  0.86826181     0.36700
C443        C  0.39652501  0.75357890  0.90669862     0.06300
F444        F  0.38040433  0.71058438  0.87152596    -0.19600
H445        H  0.33864119  0.71841342  0.84173735     0.16100
F446        F  0.32231126  0.80476650  0.86722227    -0.23300
H447        H  0.36283464  0.79633784  0.89889617     0.17900
C448        C  0.41502921  0.77482489  0.90925957     0.25900
C449        C  0.43633842  0.77308636  0.92752252    -0.11800
C450        C  0.44010846  0.75000969  0.94330469    -0.25900
C451        C  0.42205005  0.72846139  0.94033757     0.36800
C452        C  0.40035023  0.73043483  0.92247817    -0.27500
F453        F  0.41289251  0.79714110  0.89377036    -0.19600
H454        H  0.45009315  0.78987621  0.92918216     0.16100
F455        F  0.42473224  0.70586214  0.95533197    -0.23300
H456        H  0.38619754  0.71395104  0.92139258     0.17900
C457        C  0.13801848  0.62397915  0.72353516    -0.27400
C458        C  0.12349894  0.61862516  0.74717628     0.06300
C459        C  0.12909513  0.63367697  0.77045850     0.25900
C460        C  0.14927745  0.65310241  0.77022291    -0.11800
C461        C  0.16387526  0.65834323  0.74669975    -0.25800
C462        C  0.15790825  0.64384132  0.72317682     0.36700
C463        C  0.10279964  0.59721593  0.74768832     0.06300
F464        F  0.11463949  0.63001085  0.79329336    -0.19600
H465        H  0.15321443  0.66445570  0.78845029     0.16100
F466        F  0.17192321  0.64818090  0.70018587    -0.23300
H467        H  0.13424405  0.61243520  0.70540725     0.17900
C468        C  0.08280094  0.59581642  0.72773892     0.25900
C469        C  0.06317433  0.57580295  0.72879137    -0.11800
C470        C  0.06286301  0.55703164  0.74987088    -0.25900
C471        C  0.08294479  0.55830930  0.76974601     0.36800
C472        C  0.10279131  0.57812846  0.76849807    -0.27500
F473        F  0.08168888  0.61429708  0.70772439    -0.19600
H474        H  0.04778056  0.57534846  0.71333570     0.16100
F475        F  0.08378068  0.54009399  0.79001174    -0.23300
H476        H  0.11832572  0.57850512  0.78381239     0.17900
C477        C  0.73024845  0.12190861  0.36491614    -0.27400
C478        C  0.74384634  0.12661952  0.38919449     0.06300
C479        C  0.75711313  0.15127715  0.39292792     0.25900
C480        C  0.75688196  0.17062437  0.37256874    -0.11800
C481        C  0.74342752  0.16582675  0.34812499    -0.25800
C482        C  0.72997267  0.14119528  0.34458454     0.36700
C483        C  0.74518534  0.10509688  0.40973408     0.06300
F484        F  0.77006528  0.15679990  0.41633735    -0.19600
H485        H  0.76714920  0.18944631  0.37608248     0.16100
F486        F  0.71748507  0.13504908  0.32112494    -0.23300
H487        H  0.72043347  0.10282880  0.36132384     0.17900
C488        C  0.72196504  0.09100907  0.41751946     0.25900
C489        C  0.72384623  0.06940941  0.43534995    -0.11800
C490        C  0.74886432  0.06143987  0.44584278    -0.25900
C491        C  0.77200228  0.07601943  0.43850691     0.36800
C492        C  0.77009928  0.09750241  0.42057313    -0.27500
F493        F  0.69740865  0.09827328  0.40806814    -0.19600
H494        H  0.70564462  0.05884792  0.44085212     0.16100
F495        F  0.79652690  0.06969128  0.44866240    -0.23300
H496        H  0.78829319  0.10787264  0.41468184     0.17900
C497        C  0.74098398  0.88282527  0.64250726    -0.27400
C498        C  0.75923337  0.88043949  0.62117437     0.06300
C499        C  0.77706307  0.85858297  0.62080895     0.25900
C500        C  0.77576319  0.83892417  0.64087343    -0.11800
C501        C  0.75685713  0.84074790  0.66187332    -0.25800
C502        C  0.73985035  0.86341154  0.66274368     0.36700
C503        C  0.75895200  0.90050548  0.59915668     0.06300
F504        F  0.79503196  0.85567006  0.60049587    -0.19600
H505        H  0.78922339  0.82192993  0.63947479     0.16100
F506        F  0.72232078  0.86728420  0.68322544    -0.23300
H507        H  0.72752551  0.89989777  0.64351098     0.17900
C508        C  0.73488093  0.90649316  0.58561335     0.25900
C509        C  0.73439858  0.92595319  0.56542048    -0.11800
C510        C  0.75788192  0.93987905  0.55820121    -0.25900
C511        C  0.78210070  0.93364009  0.57159861     0.36800
C512        C  0.78254205  0.91410225  0.59184052    -0.27500
F513        F  0.71184950  0.89320731  0.59165298    -0.19600
H514        H  0.71550635  0.93009110  0.55539809     0.16100
F515        F  0.80524363  0.94676324  0.56565889    -0.23300
H516        H  0.80125107  0.90993479  0.60219770     0.17900
C517        C  0.77344681  0.09766178  0.57924175    -0.27400
C518        C  0.75527725  0.09640139  0.60086318     0.06300
C519        C  0.73657381  0.07512563  0.60160548     0.25900
C520        C  0.73603657  0.05589699  0.58111743    -0.11800
C521        C  0.75458081  0.05693947  0.55994710    -0.25800
C522        C  0.77341336  0.07795345  0.55920144     0.36700
C523        C  0.75570606  0.11736865  0.62228719     0.06300
F524        F  0.71928421  0.07237139  0.62250878    -0.19600
H525        H  0.72152183  0.03972465  0.58217413     0.16100
F526        F  0.79128952  0.07989303  0.53868744    -0.23300
H527        H  0.78754721  0.11412401  0.57762205     0.17900
C528        C  0.78011152  0.12709281  0.63297668     0.25900
C529        C  0.78004679  0.14687116  0.65298826    -0.11800
C530        C  0.75576524  0.15694725  0.66321317    -0.25900
C531        C  0.73140166  0.14723827  0.65260942     0.36800
C532        C  0.73146357  0.12797639  0.63216933    -0.27500
F533        F  0.80405882  0.11700469  0.62470379    -0.19600
H534        H  0.79906423  0.15388459  0.66094386     0.16100
F535        F  0.70745236  0.15695128  0.66127619    -0.23300
H536        H  0.71239650  0.12161006  0.62381444     0.17900
C537        C  0.22107819  0.85724025  0.37966334    -0.27400
C538        C  0.24119768  0.87693080  0.38054103     0.06300
C539        C  0.26043147  0.87779717  0.35993133     0.25900
C540        C  0.25965286  0.85911102  0.33901013    -0.11800
C541        C  0.23981386  0.83898913  0.33818449    -0.25800
C542        C  0.22033018  0.83838701  0.35880172     0.36700
C543        C  0.24220911  0.89645820  0.40298234     0.06300
F544        F  0.27974185  0.89704709  0.35976268    -0.19600
H545        H  0.27465690  0.86062332  0.32336728     0.16100
F546        F  0.20100157  0.81923576  0.35951800    -0.23300
H547        H  0.20619792  0.85612729  0.39550846     0.17900
C548        C  0.21965253  0.91208742  0.40956754     0.25900
C549        C  0.22131178  0.93139601  0.42990855    -0.11800
C550        C  0.24547386  0.93553580  0.44403213    -0.25900
C551        C  0.26780852  0.91923331  0.43795573     0.36800
C552        C  0.26610497  0.89994301  0.41760406    -0.27500
F553        F  0.19633592  0.90945130  0.39561139    -0.19600
H554        H  0.20380099  0.94360808  0.43410866     0.16100
F555        F  0.29130691  0.92183134  0.45161211    -0.23300
H556        H  0.28354945  0.88771516  0.41315566     0.17900
C557        C  0.23316687  0.09192427  0.58327580    -0.27400
C558        C  0.25773805  0.09813041  0.59570807     0.06300
C559        C  0.28103922  0.08437011  0.58755602     0.25900
C560        C  0.27960799  0.06481596  0.56735185    -0.11800
C561        C  0.25494374  0.05849490  0.55498770    -0.25800
C562        C  0.23169311  0.07247105  0.56311081     0.36700
C563        C  0.25855423  0.11881044  0.61722306     0.06300
F564        F  0.30524368  0.09009529  0.59879895    -0.19600
H565        H  0.29783925  0.05443233  0.56157202     0.16100
F566        F  0.20742344  0.06743877  0.55167389    -0.23300
H567        H  0.21487884  0.10199034  0.58945303     0.17900
C568        C  0.24591653  0.14376436  0.61349266     0.25900
C569        C  0.24493908  0.16243378  0.63440683    -0.11800
C570        C  0.25663708  0.15683570  0.65952676    -0.25900
C571        C  0.26993588  0.13206748  0.66306917     0.36800
C572        C  0.27078724  0.11329024  0.64208856    -0.27500
F573        F  0.23468242  0.15024976  0.58946869    -0.19600
H574        H  0.23511066  0.18145660  0.63072661     0.16100
F575        F  0.28124007  0.12540993  0.68698882    -0.23300
H576        H  0.28034637  0.09407251  0.64554684     0.17900
C577        C  0.26903000  0.91580073  0.59627423    -0.27400
C578        C  0.24392115  0.90659356  0.60512924     0.06300
C579        C  0.22050520  0.91596565  0.59245933     0.25900
C580        C  0.22227928  0.93412416  0.57115530    -0.11800
C581        C  0.24741597  0.94323664  0.56197873    -0.25800
C582        C  0.27088050  0.93383318  0.57482612     0.36700
C583        C  0.24239624  0.88707754  0.62745355     0.06300
F584        F  0.19588964  0.90793672  0.60101283    -0.19600
H585        H  0.20385339  0.94103825  0.56183100     0.16100
F586        F  0.29562727  0.94199599  0.56680991    -0.23300
H587        H  0.28728805  0.90870523  0.60581288     0.17900
C588        C  0.22962910  0.86224099  0.62391751     0.25900
C589        C  0.22911413  0.84357845  0.64484096    -0.11800
C590        C  0.24124102  0.84918841  0.66987953    -0.25900
C591        C  0.25360509  0.87450167  0.67340586     0.36800
C592        C  0.25429968  0.89302982  0.65229697    -0.27500
F593        F  0.21838406  0.85565230  0.59990785    -0.19600
H594        H  0.21939642  0.82455918  0.64100995     0.16100
F595        F  0.26505418  0.88172654  0.69705236    -0.23300
H596        H  0.26407122  0.91222373  0.65539303     0.17900
C597        C  0.61640290  0.76216669  0.14512034    -0.27400
C598        C  0.62087942  0.74954298  0.12030299     0.06300
C599        C  0.64575058  0.73699534  0.11561966     0.25900
C600        C  0.66550426  0.73672302  0.13563087    -0.11800
C601        C  0.66102572  0.74914544  0.16060697    -0.25800
C602        C  0.63614315  0.76193665  0.16515967     0.36700
C603        C  0.59953674  0.74949606  0.09946698     0.06300
F604        F  0.65118896  0.72556753  0.09144226    -0.19600
H605        H  0.68459233  0.72708039  0.13133768     0.16100
F606        F  0.63038918  0.77345761  0.18919951    -0.23300
H607        H  0.59727323  0.77183413  0.14918524     0.17900
C608        C  0.59091568  0.72537713  0.08758392     0.25900
C609        C  0.57101055  0.72559038  0.06771250    -0.11800
C610        C  0.55916411  0.74982322  0.05934618    -0.25900
C611        C  0.56752789  0.77396026  0.07166960     0.36800
C612        C  0.58746208  0.77368836  0.09154045    -0.27500
F613        F  0.60130116  0.70150416  0.09564473    -0.19600
H614        H  0.56486648  0.70669364  0.05889865     0.16100
F615        F  0.55644464  0.79787408  0.06472912    -0.23300
H616        H  0.59370299  0.79244970  0.10056925     0.17900
C617        C  0.75927136  0.85379691  0.38770337    -0.27400
C618        C  0.75073539  0.87964677  0.38059218     0.06300
C619        C  0.74169151  0.88448048  0.35428176     0.25900
C620        C  0.74124744  0.86366110  0.33540851    -0.11800
C621        C  0.74978599  0.83767689  0.34244631    -0.25800
C622        C  0.75864790  0.83290511  0.36894273     0.36700
C623        C  0.75132423  0.90137340  0.40082346     0.06300
F624        F  0.73388290  0.90946300  0.34669656    -0.19600
H625        H  0.73458979  0.86803080  0.31515139     0.16100
F626        F  0.76589767  0.80795496  0.37709252    -0.23300
H627        H  0.76603050  0.84971449  0.40801591     0.17900
C628        C  0.72758278  0.91441504  0.40866213     0.25900
C629        C  0.72830520  0.93437387  0.42844782    -0.11800
C630        C  0.75273193  0.94181175  0.44066633    -0.25900
C631        C  0.77654149  0.92871477  0.43258160     0.36800
C632        C  0.77570870  0.90860528  0.41296608    -0.27500
F633        F  0.70360825  0.90729797  0.39771730    -0.19600
H634        H  0.70965227  0.94395460  0.43425909     0.16100
F635        F  0.80060754  0.93491465  0.44386422    -0.23300
H636        H  0.79417195  0.89863862  0.40717297     0.17900
C637        C  0.09526841  0.57779955  0.22056058    -0.27400
C638        C  0.10013662  0.59355500  0.24346507     0.06300
C639        C  0.08614915  0.58802394  0.26731619     0.25900
C640        C  0.06732931  0.56729238  0.26807767    -0.11800
C641        C  0.06183740  0.55188444  0.24500464    -0.25800
C642        C  0.07618484  0.55719719  0.22119554     0.36700
C643        C  0.11928743  0.61616906  0.24223886     0.06300
F644        F  0.09077768  0.60261987  0.28992148    -0.19600
H645        H  0.05661049  0.56370470  0.28667371     0.16100
F646        F  0.07181272  0.54259629  0.19854944    -0.23300
H647        H  0.10588137  0.58185818  0.20199188     0.17900
C648        C  0.14609787  0.61200969  0.23457334     0.25900
C649        C  0.16402833  0.63357967  0.23371156    -0.11800
C650        C  0.15554598  0.65968018  0.24041748    -0.25900
C651        C  0.12850080  0.66381094  0.24769776     0.36800
C652        C  0.11065001  0.64218552  0.24869024    -0.27500
F653        F  0.15510531  0.58697317  0.22865483    -0.19600
H654        H  0.18472610  0.62968581  0.22828769     0.16100
F655        F  0.11901206  0.68875304  0.25315253    -0.23300
H656        H  0.08990275  0.64578207  0.25420849     0.17900
C657        C  0.90456648  0.41914242  0.28071200    -0.27400
C658        C  0.89374251  0.40781147  0.25732912     0.06300
C659        C  0.90390234  0.41532822  0.23213283     0.25900
C660        C  0.92516160  0.43352442  0.23045711    -0.11800
C661        C  0.93649393  0.44461623  0.25388345    -0.25800
C662        C  0.92562271  0.43754975  0.27911082     0.36700
C663        C  0.87236759  0.38754804  0.25931033     0.06300
F664        F  0.89382053  0.40437814  0.20923206    -0.19600
H665        H  0.93297038  0.43863925  0.21079344     0.13100
F666        F  0.93524669  0.44830236  0.30229281    -0.23300
H667        H  0.89666304  0.41367276  0.30025095     0.17900
C668        C  0.87715314  0.36312890  0.27249442     0.25900
C669        C  0.85736689  0.34330121  0.27281523    -0.11800
C670        C  0.83248290  0.34759932  0.26012237    -0.25900
C671        C  0.82740325  0.37258251  0.24786425     0.36800
C672        C  0.84733665  0.39226984  0.24731871    -0.27500
F673        F  0.90133781  0.35808051  0.28411120    -0.19600
H674        H  0.86187922  0.32430541  0.28232474     0.16100
F675        F  0.80313719  0.37825430  0.23677451    -0.23300
H676        H  0.84328461  0.41124880  0.23750937     0.17900
C677        C  0.91533857  0.58842634  0.27472709    -0.27400
C678        C  0.90650096  0.60000506  0.25058748     0.06300
C679        C  0.91833912  0.59186948  0.22624979     0.25900
C680        C  0.93791370  0.57173569  0.22609735    -0.11800
C681        C  0.94626261  0.55953502  0.25020557    -0.25800
C682        C  0.93500565  0.56843204  0.27465100     0.36700
C683        C  0.88463435  0.62016526  0.25108984     0.06300
F684        F  0.91121201  0.60360366  0.20266380    -0.19600
H685        H  0.94646971  0.56564712  0.20703021     0.16100
F686        F  0.94243890  0.55746657  0.29850592    -0.23300
H687        H  0.90651167  0.59447032  0.29369811     0.17900
C688        C  0.86170229  0.61708990  0.23487649     0.25900
C689        C  0.84090080  0.63588005  0.23605844    -0.11800
C690        C  0.84240132  0.65812175  0.25345804    -0.25900
C691        C  0.86542043  0.66101631  0.26984940     0.36800
C692        C  0.88618377  0.64215170  0.26865027    -0.27500
F693        F  0.85898074  0.59543846  0.21850473    -0.19600
H694        H  0.82340513  0.63265681  0.22353981     0.16100
F695        F  0.86843097  0.68225550  0.28664009    -0.23300
H696        H  0.90370562  0.64486455  0.28130922     0.17900
C697        C  0.35587468  0.26459570  0.11355780    -0.27400
C698        C  0.38159115  0.25467899  0.11940050     0.06300
C699        C  0.38672979  0.24383018  0.14496663     0.25900
C700        C  0.36623957  0.24244958  0.16412202    -0.11800
C701        C  0.34030245  0.25197553  0.15821155    -0.25800
C702        C  0.33533749  0.26318953  0.13265696     0.36700
C703        C  0.40278619  0.25529452  0.09857688     0.06300
F704        F  0.41168337  0.23494831  0.15152675    -0.19600
H705        H  0.37078374  0.23409532  0.18371315     0.16100
F706        F  0.31045563  0.27181272  0.12559421    -0.23300
H707        H  0.35152738  0.27287072  0.09386846     0.17900
C708        C  0.41579220  0.23157885  0.09059507     0.25900
C709        C  0.43576753  0.23230603  0.07089626    -0.11800
C710        C  0.44318557  0.25667490  0.05872600    -0.25900
C711        C  0.42982896  0.28041337  0.06655315     0.36800
C712        C  0.40976923  0.27960835  0.08622563    -0.27500
F713        F  0.40870673  0.20759019  0.10139397    -0.19600
H714        H  0.44541534  0.21368454  0.06516306     0.16100
F715        F  0.43584808  0.30438556  0.05509591    -0.23300
H716        H  0.39978554  0.29804213  0.09200564     0.17900
C717        C  0.27522199  0.11925806  0.36185785    -0.27400
C718        C  0.25127851  0.10761539  0.37113968     0.06300
C719        C  0.22668397  0.11605963  0.35998127     0.25900
C720        C  0.22610221  0.13628158  0.34053039    -0.11800
C721        C  0.24999643  0.14820685  0.33150142    -0.25800
C722        C  0.27467475  0.13930919  0.34218539     0.36700
C723        C  0.25186854  0.08796162  0.39354406     0.06300
F724        F  0.20319830  0.10458996  0.36774554    -0.19600
H725        H  0.20689700  0.14246490  0.33233812     0.16100
F726        F  0.29820354  0.15079261  0.33462252    -0.23300
H727        H  0.29435192  0.11341058  0.37046644     0.17900
C728        C  0.26942023  0.06577459  0.39329990     0.25900
C729        C  0.26981597  0.04781237  0.41496379    -0.11800
C730        C  0.25245824  0.05147384  0.43690690    -0.25900
C731        C  0.23506684  0.07367775  0.43718693     0.36800
C732        C  0.23496526  0.09179722  0.41581148    -0.27500
F733        F  0.28560232  0.06105714  0.37184966    -0.19600
H734        H  0.28320007  0.03067240  0.41431291     0.16100
F735        F  0.21865116  0.07825794  0.45848860    -0.23300
H736        H  0.22178010  0.10907983  0.41677993     0.17900
C737        C  0.08126105  0.40072584  0.22347788    -0.27400
C738        C  0.09302914  0.39222617  0.24767145     0.06300
C739        C  0.08521788  0.40449948  0.27186561     0.25900
C740        C  0.06601301  0.42498473  0.27175403    -0.11800
C741        C  0.05424050  0.43371399  0.24753541    -0.25800
C742        C  0.06196177  0.42114131  0.22331222     0.36700
C743        C  0.11395014  0.37108779  0.24734083     0.06300
F744        F  0.09682320  0.39731114  0.29550710    -0.19600
H745        H  0.06065683  0.43428266  0.29070108     0.16100
F746        F  0.05104026  0.42852982  0.19941035    -0.23300
H747        H  0.08701730  0.39142920  0.20463721     0.17900
C748        C  0.11120694  0.34761948  0.26269598     0.25900
C749        C  0.13104865  0.32772982  0.26184409    -0.11800
C750        C  0.15417242  0.33085739  0.24582872    -0.25900
C751        C  0.15690892  0.35472819  0.23071635     0.36800
C752        C  0.13687164  0.37438223  0.23136234    -0.27500
F753        F  0.08899676  0.34360888  0.27799470    -0.19600
H754        H  0.12799826  0.30973384  0.27357328     0.16100
F755        F  0.17905207  0.35969830  0.21569344    -0.23300
H756        H  0.13944493  0.39249535  0.21961665     0.17900
loop_ 
_geom_bond_atom_site_label_1 
_geom_bond_atom_site_label_2 
_geom_bond_distance 
_geom_bond_site_symmetry_2 
_ccdc_geom_bond_type 
N1            N2   1.320       .  A
N1            C5   1.342       .  A
N1           Cu9   2.066       .  S
N2            C3   1.346       .  A
N2           Cu8   2.084       .  S
C3            C4   1.393       .  A
C3            H6   1.081       .  S
C4            C5   1.389       .  A
C4          C750   1.493       .  S
C5            H7   1.079       .  S
Cu8          N11   2.085       .  S
Cu9          N19   2.065       .  S
Cu10         N12   2.071       .  S
Cu10         N18   2.071       .  S
N11          N12   1.323       .  A
N11          C15   1.346       .  A
N12          C13   1.344       .  A
C13          C14   1.383       .  A
C13          H16   1.081       .  S
C14          C15   1.387       .  A
C14         C721   1.481       .  S
C15          H17   1.082       .  S
N18          N19   1.320       .  A
N18          C22   1.345       .  A
N19          C20   1.343       .  A
C20          C21   1.386       .  A
C20          H23   1.083       .  S
C21          C22   1.388       .  A
C21         C701   1.483       .  S
C22          H24   1.083       .  S
O25         Cu33   2.002   1_655  S
O25          C35   1.277       .  A
O26         Cu33   2.008       .  S
O26          C36   1.278       .  A
O27         Cu33   1.994       .  S
O27          C37   1.277       .  A
O28         Cu33   1.992   1_655  S
O28          C38   1.276       .  A
O29         Cu34   2.010       .  S
O29          C38   1.279       .  A
O30         Cu34   2.011   1_455  S
O30          C37   1.278       .  A
O31         Cu34   2.011   1_455  S
O31          C36   1.278       .  A
O32         Cu34   2.009       .  S
O32          C35   1.278       .  A
Cu33        Cu34   2.369   1_455  S
C35         C681   1.483       .  S
C36         C741   1.486       .  S
C37         C641   1.479       .  S
C38         C661   1.479       .  S
N39          N40   1.322       .  A
N39          C43   1.345       .  A
N39         Cu47   2.079       .  S
N40          C41   1.342       .  A
N40         Cu46   2.066       .  S
C41          C42   1.385       .  A
C41          H44   1.086       .  S
C42          C43   1.389       .  A
C42         C601   1.485       .  S
C43          H45   1.086       .  S
Cu46         N49   2.066       .  S
Cu47         N57   2.079       .  S
Cu48         N50   2.068       .  S
Cu48         N56   2.069       .  S
N49          N50   1.320       .  A
N49          C53   1.344       .  A
N50          C51   1.344       .  A
C51          C52   1.387       .  A
C51          H54   1.081       .  S
C52          C53   1.386       .  A
C52         C621   1.483       .  S
C53          H55   1.082       .  S
N56          N57   1.321       .  A
N56          C60   1.343       .  A
N57          C58   1.344       .  A
C58          C59   1.390       .  A
C58          H61   1.082       .  S
C59          C60   1.388       .  A
C59         C690   1.488       .  S
C60          H62   1.080       .  S
O63         Cu71   2.001   1_545  S
O63          C73   1.277       .  A
O64         Cu71   2.002       .  S
O64          C74   1.278       .  A
O65         Cu71   2.002   1_545  S
O65          C75   1.277       .  A
O66         Cu71   2.007       .  S
O66          C76   1.278       .  A
O67         Cu72   2.007       .  S
O67          C76   1.278       .  A
O68         Cu72   2.015   1_545  S
O68          C75   1.279       .  A
O69         Cu72   2.010       .  S
O69          C74   1.278       .  A
O70         Cu72   2.016   1_545  S
O70          C73   1.278       .  A
Cu71        Cu72   2.370       .  S
C73         C730   1.474       .  S
C74         C581   1.483       .  S
C75         C561   1.485       .  S
C76         C550   1.482       .  S
O77         Cu85   2.004       .  S
O77          C87   1.277       .  A
O78         Cu85   2.010   1_565  S
O78          C88   1.278       .  A
O79         Cu85   2.006       .  S
O79          C89   1.278       .  A
O80         Cu85   2.014   1_565  S
O80          C90   1.278       .  A
O81         Cu86   2.006       .  S
O81          C90   1.278       .  A
O82         Cu86   2.009   1_545  S
O82          C89   1.278       .  A
O83         Cu86   2.012       .  S
O83          C88   1.279       .  A
O84         Cu86   2.011   1_545  S
O84          C87   1.278       .  A
Cu85        Cu86   2.369   1_545  S
C87         C521   1.475       .  S
C88         C630   1.485       .  S
C89         C490   1.483       .  S
C90         C510   1.485       .  S
N91          N92   1.321       .  A
N91          C95   1.346       .  A
N91         Cu99   2.068       .  S
N92          C93   1.343       .  A
N92         Cu98   2.068       .  S
C93          C94   1.383       .  A
C93          H96   1.082       .  S
C94          C95   1.384       .  A
C94         C461   1.475       .  S
C95          H97   1.083       .  S
Cu98        N101   2.069       .  S
Cu99        N109   2.069       .  S
Cu100       N102   2.081       .  S
Cu100       N108   2.082       .  S
N101        N102   1.322       .  A
N101        C105   1.343       .  A
N102        C103   1.347       .  A
C103        C104   1.387       .  A
C103        H106   1.082       .  S
C104        C105   1.383       .  A
C104        C441   1.480       .  S
C105        H107   1.081       .  S
N108        N109   1.321       .  A
N108        C112   1.345       .  A
N109        C110   1.342       .  A
C110        C111   1.390       .  A
C110        H113   1.081       .  S
C111        C112   1.393       .  A
C111        C590   1.495       .  S
C112        H114   1.079       .  S
O115       Cu123   2.022   1_655  S
O115        C125   1.280       .  A
O116       Cu123   2.019       .  S
O116        C126   1.279       .  A
O117       Cu123   2.011   1_655  S
O117        C127   1.278       .  A
O118       Cu123   2.010       .  S
O118        C128   1.279       .  A
O119       Cu124   2.017       .  S
O119        C128   1.279       .  A
O120       Cu124   2.011   1_655  S
O120        C127   1.279       .  A
O121       Cu124   1.996       .  S
O121        C126   1.276       .  A
O122       Cu124   1.993   1_655  S
O122        C125   1.276       .  A
Cu123      Cu124   2.369       .  S
C125        C421   1.484       .  S
C126        C470   1.477       .  S
C127        C401   1.485       .  S
C128        C381   1.488       .  S
N129        N130   1.322       .  A
N129        C133   1.346       .  A
N129       Cu137   2.077       .  S
N130        C131   1.344       .  A
N130       Cu136   2.074       .  S
C131        C132   1.385       .  A
C131        H134   1.081       .  S
C132        C133   1.386       .  A
C132        C530   1.482       .  S
C133        H135   1.082       .  S
Cu136       N139   2.074       .  S
Cu137       N147   2.078       .  S
Cu138       N140   2.073       .  S
Cu138       N146   2.073       .  S
N139        N140   1.321       .  A
N139        C143   1.345       .  A
N140        C141   1.345       .  A
C141        C142   1.385       .  A
C141        H144   1.081       .  S
C142        C143   1.386       .  A
C142        C361   1.480       .  S
C143        H145   1.081       .  S
N146        N147   1.321       .  A
N146        C150   1.345       .  A
N147        C148   1.344       .  A
C148        C149   1.389       .  A
C148        H151   1.081       .  S
C149        C150   1.387       .  A
C149        C430   1.487       .  S
C150        H152   1.082       .  S
O153       Cu161   2.021   1_556  S
O153        C163   1.279       .  A
O154       Cu161   2.017       .  S
O154        C164   1.280       .  A
O155       Cu161   2.013       .  S
O155        C165   1.278       .  A
O156       Cu161   2.018   1_556  S
O156        C166   1.279       .  A
O157       Cu162   2.008   1_556  S
O157        C166   1.278       .  A
O158       Cu162   2.010       .  S
O158        C165   1.279       .  A
O159       Cu162   2.004       .  S
O159        C164   1.277       .  A
O160       Cu162   2.004   1_556  S
O160        C163   1.278       .  A
Cu161      Cu162   2.369       .  S
C163        C450   1.483       .  S
C164        C610   1.486       .  S
C165        C350   1.484       .  S
C166        C321   1.484       .  S
O167       Cu175   1.999   1_554  S
O167        C177   1.277       .  A
O168       Cu175   1.994       .  S
O168        C178   1.277       .  A
O169       Cu175   2.011       .  S
O169        C179   1.278       .  A
O170       Cu175   2.009   1_554  S
O170        C180   1.279       .  A
O171       Cu176   2.008       .  S
O171        C180   1.278       .  A
O172       Cu176   2.010   1_556  S
O172        C179   1.278       .  A
O173       Cu176   2.020   1_556  S
O173        C178   1.280       .  A
O174       Cu176   2.016       .  S
O174        C177   1.280       .  A
Cu175      Cu176   2.369   1_556  S
C177        C310   1.484       .  S
C178        C290   1.485       .  S
C179        C370   1.477       .  S
C180        C710   1.484       .  S
N181        N182   1.322       .  A
N181        C185   1.343       .  A
N181       Cu189   2.067       .  S
N182        C183   1.346       .  A
N182       Cu188   2.078       .  S
C183        C184   1.386       .  A
C183        H186   1.081       .  S
C184        C185   1.383       .  A
C184        C330   1.479       .  S
C185        H187   1.082       .  S
Cu188       N191   2.078       .  S
Cu189       N199   2.067       .  S
Cu190       N192   2.077       .  S
Cu190       N198   2.077       .  S
N191        N192   1.321       .  A
N191        C195   1.344       .  A
N192        C193   1.345       .  A
C193        C194   1.390       .  A
C193        H196   1.082       .  S
C194        C195   1.390       .  A
C194        C501   1.492       .  S
C195        H197   1.080       .  S
N198        N199   1.319       .  A
N198        C202   1.343       .  A
N199        C200   1.344       .  A
C200        C201   1.391       .  A
C200        H203   1.078       .  S
C201        C202   1.392       .  A
C201        C410   1.495       .  S
C202        H204   1.081       .  S
N205        N206   1.321       .  A
N205        C209   1.343       .  A
N205       Cu213   2.064       .  S
N206        C207   1.343       .  A
N206       Cu212   2.075       .  S
C207        C208   1.388       .  A
C207        H210   1.081       .  S
C208        C209   1.386       .  A
C208        C481   1.484       .  S
C209        H211   1.081       .  S
Cu212       N215   2.074       .  S
Cu213       N223   2.063       .  S
Cu214       N216   2.061       .  S
Cu214       N222   2.060       .  S
N215        N216   1.320       .  A
N215        C219   1.345       .  A
N216        C217   1.342       .  A
C217        C218   1.385       .  A
C217        H220   1.081       .  S
C218        C219   1.388       .  A
C218        C301   1.482       .  S
C219        H221   1.082       .  S
N222        N223   1.320       .  A
N222        C226   1.342       .  A
N223        C224   1.343       .  A
C224        C225   1.385       .  A
C224        H227   1.082       .  S
C225        C226   1.385       .  A
C225        C670   1.477       .  S
C226        H228   1.080       .  S
N229        N230   1.321       .  A
N229        C233   1.345       .  A
N229       Cu237   2.075       .  S
N230        C231   1.343       .  A
N230       Cu236   2.069       .  S
C231        C232   1.386       .  A
C231        H234   1.081       .  S
C232        C233   1.387       .  A
C232        C281   1.483       .  S
C233        H235   1.082       .  S
Cu236       N239   2.069       .  S
Cu237       N247   2.075       .  S
Cu238       N240   2.083       .  S
Cu238       N246   2.083       .  S
N239        N240   1.321       .  A
N239        C243   1.346       .  A
N240        C241   1.344       .  A
C241        C242   1.389       .  A
C241        H244   1.082       .  S
C242        C243   1.387       .  A
C242        C570   1.487       .  S
C243        H245   1.080       .  S
N246        N247   1.321       .  A
N246        C250   1.347       .  A
N247        C248   1.344       .  A
C248        C249   1.388       .  A
C248        H251   1.081       .  S
C249        C250   1.390       .  A
C249        C390   1.491       .  S
C250        H252   1.082       .  S
N253        N254   1.321       .  A
N253        C257   1.343       .  A
N253       Cu261   2.072       .  S
N254        C255   1.346       .  A
N254       Cu260   2.074       .  S
C255        C256   1.388       .  A
C255        H258   1.081       .  S
C256        C257   1.386       .  A
C256        C341   1.485       .  S
C257        H259   1.082       .  S
Cu260       N263   2.074       .  S
Cu261       N271   2.071       .  S
Cu262       N264   2.073       .  S
Cu262       N270   2.073       .  S
N263        N264   1.321       .  A
N263        C267   1.343       .  A
N264        C265   1.345       .  A
C265        C266   1.389       .  A
C265        H268   1.080       .  S
C266        C267   1.389       .  A
C266        C541   1.489       .  S
C267        H269   1.081       .  S
N270        N271   1.321       .  A
N270        C274   1.345       .  A
N271        C272   1.344       .  A
C272        C273   1.386       .  A
C272        H275   1.082       .  S
C273        C274   1.387       .  A
C273        C650   1.483       .  S
C274        H276   1.081       .  S
C277        C278   1.402       .  A
C277        C282   1.396       .  A
C277        H287   1.084       .  S
C278        C279   1.405       .  A
C278        C283   1.480       .  S
C279        C280   1.399       .  A
C279        F284   1.357       .  S
C280        C281   1.407       .  A
C280        H285   1.083       .  S
C281        C282   1.409       .  A
C282        F286   1.356       .  S
C283        C288   1.404       .  A
C283        C292   1.403       .  A
C288        C289   1.396       .  A
C288        F293   1.358       .  S
C289        C290   1.408       .  A
C289        H294   1.083       .  S
C290        C291   1.410       .  A
C291        C292   1.400       .  A
C291        F295   1.357       .  S
C292        H296   1.084       .  S
C297        C298   1.401       .  A
C297        C302   1.397       .  A
C297        H307   1.083       .  S
C298        C299   1.405       .  A
C298        C303   1.478       .  S
C299        C300   1.398       .  A
C299        F304   1.358       .  S
C300        C301   1.406       .  A
C300        H305   1.082       .  S
C301        C302   1.410       .  A
C302        F306   1.356       .  S
C303        C308   1.405       .  A
C303        C312   1.401       .  A
C308        C309   1.399       .  A
C308        F313   1.358       .  S
C309        C310   1.407       .  A
C309        H314   1.083       .  S
C310        C311   1.412       .  A
C311        C312   1.396       .  A
C311        F315   1.357       .  S
C312        H316   1.084       .  S
C317        C318   1.404       .  A
C317        C322   1.400       .  A
C317        H327   1.083       .  S
C318        C319   1.404       .  A
C318        C323   1.480       .  S
C319        C320   1.398       .  A
C319        F324   1.357       .  S
C320        C321   1.407       .  A
C320        H325   1.083       .  S
C321        C322   1.410       .  A
C322        F326   1.357       .  S
C323        C328   1.405       .  A
C323        C332   1.404       .  A
C328        C329   1.398       .  A
C328        F333   1.358       .  S
C329        C330   1.406       .  A
C329        H334   1.083       .  S
C330        C331   1.406       .  A
C331        C332   1.399       .  A
C331        F335   1.357       .  S
C332        H336   1.084       .  S
C337        C338   1.405       .  A
C337        C342   1.400       .  A
C337        H347   1.083       .  S
C338        C339   1.407       .  A
C338        C343   1.487       .  S
C339        C340   1.398       .  A
C339        F344   1.358       .  S
C340        C341   1.406       .  A
C340        H345   1.082       .  S
C341        C342   1.409       .  A
C342        F346   1.356       .  S
C343        C348   1.407       .  A
C343        C352   1.405       .  A
C348        C349   1.399       .  A
C348        F353   1.357       .  S
C349        C350   1.406       .  A
C349        H354   1.083       .  S
C350        C351   1.409       .  A
C351        C352   1.399       .  A
C351        F355   1.357       .  S
C352        H356   1.083       .  S
C357        C358   1.405       .  A
C357        C362   1.398       .  A
C357        H367   1.083       .  S
C358        C359   1.408       .  A
C358        C363   1.486       .  S
C359        C360   1.399       .  A
C359        F364   1.357       .  S
C360        C361   1.405       .  A
C360        H365   1.083       .  S
C361        C362   1.407       .  A
C362        F366   1.357       .  S
C363        C368   1.408       .  A
C363        C372   1.406       .  A
C368        C369   1.398       .  A
C368        F373   1.357       .  S
C369        C370   1.403       .  A
C369        H374   1.084       .  S
C370        C371   1.407       .  A
C371        C372   1.400       .  A
C371        F375   1.358       .  S
C372        H376   1.083       .  S
C377        C378   1.404       .  A
C377        C382   1.401       .  A
C377        H387   1.083       .  S
C378        C379   1.406       .  A
C378        C383   1.485       .  S
C379        C380   1.398       .  A
C379        F384   1.358       .  S
C380        C381   1.407       .  A
C380        H385   1.083       .  S
C381        C382   1.411       .  A
C382        F386   1.357       .  S
C383        C388   1.406       .  A
C383        C392   1.402       .  A
C388        C389   1.402       .  A
C388        F393   1.357       .  S
C389        C390   1.409       .  A
C389        H394   1.082       .  S
C390        C391   1.411       .  A
C391        C392   1.398       .  A
C391        F395   1.356       .  S
C392        H396   1.083       .  S
C397        C398   1.402       .  A
C397        C402   1.396       .  A
C397        H407   1.084       .  S
C398        C399   1.404       .  A
C398        C403   1.479       .  S
C399        C400   1.401       .  A
C399        F404   1.358       .  S
C400        C401   1.409       .  A
C400        H405   1.083       .  S
C401        C402   1.410       .  A
C402        F406   1.357       .  S
C403        C408   1.402       .  A
C403        C412   1.401       .  A
C408        C409   1.396       .  A
C408        F413   1.358       .  S
C409        C410   1.409       .  A
C409        H414   1.080       .  S
C410        C411   1.415       .  A
C411        C412   1.400       .  A
C411        F415   1.355       .  S
C412        H416   1.083       .  S
C417        C418   1.401       .  A
C417        C422   1.395       .  A
C417        H427   1.084       .  S
C418        C419   1.405       .  A
C418        C423   1.479       .  S
C419        C420   1.401       .  A
C419        F424   1.357       .  S
C420        C421   1.407       .  A
C420        H425   1.083       .  S
C421        C422   1.411       .  A
C422        F426   1.357       .  S
C423        C428   1.404       .  A
C423        C432   1.401       .  A
C428        C429   1.400       .  A
C428        F433   1.358       .  S
C429        C430   1.409       .  A
C429        H434   1.082       .  S
C430        C431   1.410       .  A
C431        C432   1.397       .  A
C431        F435   1.356       .  S
C432        H436   1.084       .  S
C437        C438   1.409       .  A
C437        C442   1.401       .  A
C437        H447   1.083       .  S
C438        C439   1.409       .  A
C438        C443   1.492       .  S
C439        C440   1.397       .  A
C439        F444   1.357       .  S
C440        C441   1.404       .  A
C440        H445   1.084       .  S
C441        C442   1.405       .  A
C442        F446   1.357       .  S
C443        C448   1.409       .  A
C443        C452   1.408       .  A
C448        C449   1.398       .  A
C448        F453   1.357       .  S
C449        C450   1.405       .  A
C449        H454   1.084       .  S
C450        C451   1.408       .  A
C451        C452   1.401       .  A
C451        F455   1.357       .  S
C452        H456   1.083       .  S
C457        C458   1.406       .  A
C457        C462   1.400       .  A
C457        H467   1.085       .  S
C458        C459   1.406       .  A
C458        C463   1.483       .  S
C459        C460   1.395       .  A
C459        F464   1.357       .  S
C460        C461   1.402       .  A
C460        H465   1.086       .  S
C461        C462   1.406       .  A
C462        F466   1.357       .  S
C463        C468   1.406       .  A
C463        C472   1.406       .  A
C468        C469   1.397       .  A
C468        F473   1.357       .  S
C469        C470   1.405       .  A
C469        H474   1.085       .  S
C470        C471   1.406       .  A
C471        C472   1.398       .  A
C471        F475   1.357       .  S
C472        H476   1.084       .  S
C477        C478   1.403       .  A
C477        C482   1.395       .  A
C477        H487   1.083       .  S
C478        C479   1.407       .  A
C478        C483   1.483       .  S
C479        C480   1.399       .  A
C479        F484   1.358       .  S
C480        C481   1.407       .  A
C480        H485   1.082       .  S
C481        C482   1.409       .  A
C482        F486   1.356       .  S
C483        C488   1.407       .  A
C483        C492   1.403       .  A
C488        C489   1.398       .  A
C488        F493   1.358       .  S
C489        C490   1.406       .  A
C489        H494   1.083       .  S
C490        C491   1.410       .  A
C491        C492   1.397       .  A
C491        F495   1.357       .  S
C492        H496   1.083       .  S
C497        C498   1.402       .  A
C497        C502   1.398       .  A
C497        H507   1.084       .  S
C498        C499   1.405       .  A
C498        C503   1.483       .  S
C499        C500   1.400       .  A
C499        F504   1.357       .  S
C500        C501   1.409       .  A
C500        H505   1.082       .  S
C501        C502   1.412       .  A
C502        F506   1.355       .  S
C503        C508   1.405       .  A
C503        C512   1.404       .  A
C508        C509   1.397       .  A
C508        F513   1.358       .  S
C509        C510   1.406       .  A
C509        H514   1.083       .  S
C510        C511   1.411       .  A
C511        C512   1.401       .  A
C511        F515   1.357       .  S
C512        H516   1.083       .  S
C517        C518   1.407       .  A
C517        C522   1.398       .  A
C517        H527   1.083       .  S
C518        C519   1.411       .  A
C518        C523   1.491       .  S
C519        C520   1.398       .  A
C519        F524   1.357       .  S
C520        C521   1.402       .  A
C520        H525   1.083       .  S
C521        C522   1.406       .  A
C522        F526   1.358       .  S
C523        C528   1.411       .  A
C523        C532   1.406       .  A
C528        C529   1.400       .  A
C528        F533   1.357       .  S
C529        C530   1.404       .  A
C529        H534   1.083       .  S
C530        C531   1.407       .  A
C531        C532   1.397       .  A
C531        F535   1.357       .  S
C532        H536   1.083       .  S
C537        C538   1.402       .  A
C537        C542   1.399       .  A
C537        H547   1.083       .  S
C538        C539   1.404       .  A
C538        C543   1.481       .  S
C539        C540   1.396       .  A
C539        F544   1.358       .  S
C540        C541   1.408       .  A
C540        H545   1.082       .  S
C541        C542   1.412       .  A
C542        F546   1.355       .  S
C543        C548   1.405       .  A
C543        C552   1.404       .  A
C548        C549   1.398       .  A
C548        F553   1.357       .  S
C549        C550   1.407       .  A
C549        H554   1.083       .  S
C550        C551   1.409       .  A
C551        C552   1.397       .  A
C551        F555   1.357       .  S
C552        H556   1.083       .  S
C557        C558   1.404       .  A
C557        C562   1.396       .  A
C557        H567   1.084       .  S
C558        C559   1.407       .  A
C558        C563   1.485       .  S
C559        C560   1.401       .  A
C559        F564   1.357       .  S
C560        C561   1.407       .  A
C560        H565   1.083       .  S
C561        C562   1.410       .  A
C562        F566   1.357       .  S
C563        C568   1.405       .  A
C563        C572   1.405       .  A
C568        C569   1.395       .  A
C568        F573   1.357       .  S
C569        C570   1.405       .  A
C569        H574   1.082       .  S
C570        C571   1.411       .  A
C571        C572   1.401       .  A
C571        F575   1.356       .  S
C572        H576   1.083       .  S
C577        C578   1.403       .  A
C577        C582   1.398       .  A
C577        H587   1.084       .  S
C578        C579   1.404       .  A
C578        C583   1.478       .  S
C579        C580   1.397       .  A
C579        F584   1.358       .  S
C580        C581   1.407       .  A
C580        H585   1.083       .  S
C581        C582   1.410       .  A
C582        F586   1.357       .  S
C583        C588   1.402       .  A
C583        C592   1.401       .  A
C588        C589   1.396       .  A
C588        F593   1.358       .  S
C589        C590   1.411       .  A
C589        H594   1.081       .  S
C590        C591   1.414       .  A
C591        C592   1.399       .  A
C591        F595   1.354       .  S
C592        H596   1.084       .  S
C597        C598   1.403       .  A
C597        C602   1.398       .  A
C597        H607   1.086       .  S
C598        C599   1.406       .  A
C598        C603   1.483       .  S
C599        C600   1.398       .  A
C599        F604   1.357       .  S
C600        C601   1.405       .  A
C600        H605   1.086       .  S
C601        C602   1.411       .  A
C602        F606   1.356       .  S
C603        C608   1.405       .  A
C603        C612   1.403       .  A
C608        C609   1.398       .  A
C608        F613   1.357       .  S
C609        C610   1.406       .  A
C609        H614   1.082       .  S
C610        C611   1.412       .  A
C611        C612   1.399       .  A
C611        F615   1.358       .  S
C612        H616   1.082       .  S
C617        C618   1.402       .  A
C617        C622   1.397       .  A
C617        H627   1.084       .  S
C618        C619   1.404       .  A
C618        C623   1.477       .  S
C619        C620   1.398       .  A
C619        F624   1.357       .  S
C620        C621   1.407       .  A
C620        H625   1.082       .  S
C621        C622   1.409       .  A
C622        F626   1.356       .  S
C623        C628   1.404       .  A
C623        C632   1.402       .  A
C628        C629   1.399       .  A
C628        F633   1.358       .  S
C629        C630   1.408       .  A
C629        H634   1.083       .  S
C630        C631   1.411       .  A
C631        C632   1.398       .  A
C631        F635   1.357       .  S
C632        H636   1.083       .  S
C637        C638   1.403       .  A
C637        C642   1.399       .  A
C637        H647   1.083       .  S
C638        C639   1.403       .  A
C638        C643   1.477       .  S
C639        C640   1.395       .  A
C639        F644   1.358       .  S
C640        C641   1.406       .  A
C640        H645   1.083       .  S
C641        C642   1.409       .  A
C642        F646   1.357       .  S
C643        C648   1.403       .  A
C643        C652   1.403       .  A
C648        C649   1.398       .  A
C648        F653   1.358       .  S
C649        C650   1.407       .  A
C649        H654   1.082       .  S
C650        C651   1.409       .  A
C651        C652   1.397       .  A
C651        F655   1.357       .  S
C652        H656   1.083       .  S
C657        C658   1.399       .  A
C657        C662   1.395       .  A
C657        H667   1.084       .  S
C658        C659   1.403       .  A
C658        C663   1.470       .  S
C659        C660   1.396       .  A
C659        F664   1.358       .  S
C660        C661   1.406       .  A
C660        H665   1.083       .  S
C661        C662   1.412       .  A
C662        F666   1.357       .  S
C663        C668   1.403       .  A
C663        C672   1.400       .  A
C668        C669   1.395       .  A
C668        F673   1.358       .  S
C669        C670   1.405       .  A
C669        H674   1.082       .  S
C670        C671   1.409       .  A
C671        C672   1.395       .  A
C671        F675   1.357       .  S
C672        H676   1.083       .  S
C677        C678   1.402       .  A
C677        C682   1.396       .  A
C677        H687   1.083       .  S
C678        C679   1.406       .  A
C678        C683   1.481       .  S
C679        C680   1.398       .  A
C679        F684   1.358       .  S
C680        C681   1.407       .  A
C680        H685   1.083       .  S
C681        C682   1.410       .  A
C682        F686   1.357       .  S
C683        C688   1.405       .  A
C683        C692   1.402       .  A
C688        C689   1.397       .  A
C688        F693   1.357       .  S
C689        C690   1.407       .  A
C689        H694   1.081       .  S
C690        C691   1.412       .  A
C691        C692   1.398       .  A
C691        F695   1.355       .  S
C692        H696   1.083       .  S
C697        C698   1.402       .  A
C697        C702   1.398       .  A
C697        H707   1.084       .  S
C698        C699   1.405       .  A
C698        C703   1.479       .  S
C699        C700   1.398       .  A
C699        F704   1.358       .  S
C700        C701   1.406       .  A
C700        H705   1.083       .  S
C701        C702   1.410       .  A
C702        F706   1.356       .  S
C703        C708   1.404       .  A
C703        C712   1.403       .  A
C708        C709   1.397       .  A
C708        F713   1.358       .  S
C709        C710   1.407       .  A
C709        H714   1.083       .  S
C710        C711   1.411       .  A
C711        C712   1.399       .  A
C711        F715   1.357       .  S
C712        H716   1.083       .  S
C717        C718   1.404       .  A
C717        C722   1.399       .  A
C717        H727   1.083       .  S
C718        C719   1.407       .  A
C718        C723   1.484       .  S
C719        C720   1.398       .  A
C719        F724   1.358       .  S
C720        C721   1.404       .  A
C720        H725   1.083       .  S
C721        C722   1.409       .  A
C722        F726   1.357       .  S
C723        C728   1.409       .  A
C723        C732   1.404       .  A
C728        C729   1.401       .  A
C728        F733   1.358       .  S
C729        C730   1.404       .  A
C729        H734   1.083       .  S
C730        C731   1.404       .  A
C731        C732   1.395       .  A
C731        F735   1.358       .  S
C732        H736   1.084       .  S
C737        C738   1.403       .  A
C737        C742   1.399       .  A
C737        H747   1.084       .  S
C738        C739   1.404       .  A
C738        C743   1.481       .  S
C739        C740   1.398       .  A
C739        F744   1.357       .  S
C740        C741   1.408       .  A
C740        H745   1.083       .  S
C741        C742   1.411       .  A
C742        F746   1.357       .  S
C743        C748   1.404       .  A
C743        C752   1.401       .  A
C748        C749   1.399       .  A
C748        F753   1.357       .  S
C749        C750   1.409       .  A
C749        H754   1.081       .  S
C750        C751   1.414       .  A
C751        C752   1.398       .  A
C751        F755   1.355       .  S
C752        H756   1.083       .  S
