geometry optimzed in LAMMPS
_audit_creation_date              2020-12-01 
_audit_creation_method            'lammps2cif' 
_symmetry_space_group_name_H-M    'P1' 
_symmetry_Int_Tables_number       1 
_symmetry_cell_setting            triclinic 
loop_ 
_symmetry_equiv_pos_as_xyz 
  x,y,z 
_cell_length_a                    46.89692768 
_cell_length_b                    46.54509698848262 
_cell_length_c                    44.83175513827968 
_cell_angle_alpha                 90.03582979706073 
_cell_angle_beta                  89.76556850867779 
_cell_angle_gamma                 89.99298881825253 
loop_ 
_atom_site_label 
_atom_site_type_symbol 
_atom_site_fract_x 
_atom_site_fract_y 
_atom_site_fract_z 
_atom_site_charge 
C1          C  0.23223762  0.37172833  0.87604057     0.86400
C2          C  0.20451170  0.37031590  0.85465660    -0.53800
C3          C  0.20768849  0.35393986  0.82902314     0.09300
C4          C  0.23795793  0.34412736  0.82962492     0.20300
C5          C  0.23628894  0.33945759  0.88373081    -0.54500
C6          C  0.23943276  0.32282543  0.85882487     0.09400
C7          C  0.26071065  0.37829072  0.85671703    -0.54100
C8          C  0.26446537  0.36178929  0.83144210     0.10000
H9          H  0.18333874  0.37438915  0.86348467     0.14500
H10         H  0.23853448  0.34821716  0.80567012     0.00300
H11         H  0.23661095  0.33091630  0.90623776     0.14800
H12         H  0.27877853  0.38932809  0.86647596     0.14600
C13         C  0.31233419  0.31707238  0.77357985     0.86400
C14         C  0.31706257  0.28882724  0.79384074    -0.53800
C15         C  0.29858892  0.28566450  0.81756527     0.09300
C16         C  0.28105195  0.31240462  0.81749866     0.20300
C17         C  0.28101744  0.31294224  0.76317967    -0.54500
C18         C  0.26244861  0.31037019  0.78662966     0.09400
C19         C  0.30920425  0.34546341  0.79428940    -0.54100
C20         C  0.29077133  0.34284235  0.81838650     0.10000
H21         H  0.32858978  0.27033443  0.78530138     0.14500
H22         H  0.28315090  0.31226025  0.84172815     0.00300
H23         H  0.27446565  0.31213206  0.74001187     0.14800
H24         H  0.31401896  0.36660069  0.78545595     0.14600
C25         C  0.24988488  0.23837293  0.87186218     0.86400
C26         C  0.27956359  0.24142094  0.85353621    -0.53800
C27         C  0.27871682  0.25949477  0.82914306     0.09300
C28         C  0.24853857  0.26928426  0.82743980     0.20300
C29         C  0.24482853  0.27005498  0.88162875    -0.54500
C30         C  0.24409746  0.28846475  0.85782713     0.09400
C31         C  0.22348285  0.23328938  0.84945101    -0.54100
C32         C  0.22213130  0.25162906  0.82541355     0.10000
H33         H  0.29990195  0.23792472  0.86432116     0.14500
H34         H  0.25036856  0.26657200  0.80330266     0.00300
H35         H  0.24223540  0.27695311  0.90459126     0.14800
H36         H  0.20451259  0.22183844  0.85659128     0.14600
C37         C  0.18024422  0.29946293  0.76632265     0.86400
C38         C  0.17339809  0.32680816  0.78742116    -0.53800
C39         C  0.18914917  0.32864876  0.81335778     0.09300
C40         C  0.20672802  0.30191757  0.81345903     0.20300
C41         C  0.21238767  0.30410889  0.75940545    -0.54500
C42         C  0.22839765  0.30567393  0.78477231     0.09400
C43         C  0.18147441  0.27009078  0.78557409    -0.54100
C44         C  0.19717032  0.27144340  0.81148567     0.10000
H45         H  0.16322460  0.34582079  0.77838059     0.14500
H46         H  0.20217077  0.30061405  0.83731835     0.00300
H47         H  0.22129492  0.30594760  0.73711891     0.14800
H48         H  0.17889018  0.24939659  0.77479482     0.14600
C49         C  0.31117430  0.30485725  0.38097160     0.86400
C50         C  0.31167761  0.33320834  0.36000301    -0.53800
C51         C  0.29554358  0.33142488  0.33426173     0.09300
C52         C  0.28403059  0.30162076  0.33426775     0.20300
C53         C  0.27884597  0.30267467  0.38834423    -0.54500
C54         C  0.26249529  0.30091316  0.36322513     0.09400
C55         C  0.31613107  0.27618891  0.36140480    -0.54100
C56         C  0.29991028  0.27394940  0.33601550     0.10000
H57         H  0.31611296  0.35420463  0.36939120     0.14500
H58         H  0.28843162  0.30118045  0.31035414     0.00300
H59         H  0.27007758  0.30246949  0.41078064     0.14800
H60         H  0.32553242  0.25708985  0.37113025     0.14600
C61         C  0.24444931  0.36362190  0.27147322     0.86400
C62         C  0.27132880  0.36841388  0.29339658    -0.53800
C63         C  0.27171352  0.35177390  0.31882031     0.09300
C64         C  0.24419425  0.33570950  0.31807069     0.20300
C65         C  0.24739033  0.33110694  0.26400102    -0.54500
C66         C  0.24720086  0.31431003  0.28908434     0.09400
C67         C  0.21476174  0.36365818  0.29018309    -0.54100
C68         C  0.21462715  0.34722251  0.31590812     0.10000
H69         H  0.29094009  0.37804670  0.28530582     0.14500
H70         H  0.24275068  0.33994777  0.34196422     0.00300
H71         H  0.24937004  0.32254520  0.24157466     0.14800
H72         H  0.19464364  0.36785254  0.27921420     0.14600
C73         C  0.17830670  0.29500501  0.37577264     0.86400
C74         C  0.17966037  0.26534537  0.35680685    -0.53800
C75         C  0.19773431  0.26553403  0.33233582     0.09300
C76         C  0.20918072  0.29543434  0.33127370     0.20300
C77         C  0.20987586  0.29792852  0.38558969    -0.54500
C78         C  0.22823424  0.29821515  0.36185215     0.09400
C79         C  0.17500803  0.32240916  0.35390046    -0.54100
C80         C  0.19326170  0.32312209  0.32964188     0.10000
H81         H  0.17483507  0.24492767  0.36727874     0.14500
H82         H  0.20694777  0.29425454  0.30710227     0.00300
H83         H  0.21676478  0.29957176  0.40860635     0.14800
H84         H  0.16495835  0.34204175  0.36167020     0.14600
C85         C  0.25454960  0.22940161  0.27704430     0.86400
C86         C  0.22561826  0.22572130  0.29649716    -0.53800
C87         C  0.22275700  0.24420303  0.32050403     0.09300
C88         C  0.25013687  0.26042709  0.32121979     0.20300
C89         C  0.25215178  0.26125942  0.26696607    -0.54500
C90         C  0.24981553  0.27973059  0.29056376     0.09400
C91         C  0.28212867  0.23080168  0.29852633    -0.54100
C92         C  0.27976494  0.24897914  0.32264333     0.10000
H93         H  0.20698306  0.21523585  0.28727501     0.14500
H94         H  0.24939602  0.25779447  0.34539827     0.00300
H95         H  0.25247180  0.26824835  0.24387434     0.14800
H96         H  0.30320370  0.22506452  0.29048643     0.14600
O97         O  0.27891878  0.02326061  0.04245063    -0.71800
O98         O  0.27785888  0.08321446  0.10048933    -0.72100
O99         O  0.27613979  0.02544283  0.10209917    -0.71900
O100        O  0.28089592  0.08110656  0.04021177    -0.71900
O101        O  0.23464365  0.08245969  0.03792346    -0.71900
O102        O  0.22987840  0.02759401  0.10022398    -0.71900
O103        O  0.23165837  0.08483678  0.09748123    -0.71900
O104        O  0.23266652  0.02495858  0.04029535    -0.72000
V105        V  0.27760505  0.05335948  0.07123809     1.35200
V106        V  0.23316176  0.05488689  0.06899540     1.35200
C107        C  0.25585157  0.01385331  0.03164643     0.77400
C108        C  0.25439797  0.09398329  0.10904820     0.77400
C109        C  0.25214800  0.01725148  0.11179439     0.77300
C110        C  0.25854094  0.09120162  0.02850087     0.77300
O111        O  0.02173650  0.31503640  0.54161815    -0.71800
O112        O  0.47157686  0.32324201  0.60862983    -0.72100
O113        O  0.02634140  0.31428858  0.60099994    -0.71900
O114        O  0.46870939  0.32675635  0.54863939    -0.71900
O115        O  0.46648603  0.28031369  0.54427943    -0.71900
O116        O  0.02002261  0.26809938  0.60317859    -0.71900
O117        O  0.46601491  0.27714033  0.60398828    -0.71900
O118        O  0.01942856  0.26843765  0.54309032    -0.72000
V119        V  0.49862450  0.32193158  0.57670485     1.35200
V120        V  0.49510500  0.27732803  0.57416536     1.35200
C121        C  0.03010550  0.29094148  0.53186406     0.77400
C122        C  0.45899768  0.30042186  0.61663584     0.77400
C123        C  0.03355467  0.29017966  0.61154482     0.77300
C124        C  0.45761598  0.30489362  0.53661995     0.77300
C125        C  0.23889824  0.15095651  0.16877014     0.15900
C126        C  0.22626486  0.17076337  0.18835149    -0.33200
C127        C  0.24347597  0.18275098  0.21061788     0.20300
C128        C  0.27190579  0.17513598  0.21338606     0.02500
C129        C  0.28468342  0.15571376  0.19349723    -0.22900
C130        C  0.26753342  0.14385996  0.17110862     0.11600
S131        S  0.22135048  0.13320404  0.14111647    -0.06500
C132        C  0.25296427  0.11624046  0.13232716    -0.10000
C133        C  0.27582657  0.12408813  0.15005295    -0.26600
S134        S  0.28880175  0.19103003  0.24260250    -0.03800
C135        C  0.25736442  0.20863244  0.25116196    -0.17300
C136        C  0.23513156  0.20228348  0.23187804    -0.15300
H137        H  0.20391240  0.17638000  0.18647898     0.20100
H138        H  0.30693947  0.14983546  0.19561507     0.16200
H139        H  0.29712780  0.11525977  0.14815182     0.18700
H140        H  0.21388392  0.21129303  0.23348176     0.12000
C141        C  0.12707733  0.30833183  0.44310630     0.15900
C142        C  0.11099866  0.32017715  0.46658185    -0.33200
C143        C  0.08901341  0.30335487  0.47884686     0.20300
C144        C  0.08365184  0.27577611  0.46859712     0.02500
C145        C  0.09956492  0.26406910  0.44498311    -0.22900
C146        C  0.12119106  0.28107506  0.43237084     0.11600
S147        S  0.15428245  0.32533004  0.42478424    -0.06500
C148        C  0.15738780  0.29568131  0.40173961    -0.10000
C149        C  0.13829805  0.27376231  0.40863870    -0.26600
S150        S  0.05658807  0.25853102  0.48690515    -0.03800
C151        C  0.05193483  0.28902896  0.50817523    -0.17300
C152        C  0.07067941  0.31119103  0.50139997    -0.15300
H153        H  0.11527135  0.34162921  0.47474462     0.20100
H154        H  0.09514748  0.24270586  0.43665793     0.16200
H155        H  0.13640720  0.25365533  0.39675519     0.18700
H156        H  0.07107827  0.33179509  0.51262128     0.12000
C157        C  0.26083658  0.41446194  0.20440138     0.15900
C158        C  0.27432926  0.43157324  0.18271311    -0.33200
C159        C  0.25849637  0.45401700  0.16990840     0.20300
C160        C  0.23028902  0.45875719  0.17787140     0.02500
C161        C  0.21690765  0.44180577  0.19971957    -0.22900
C162        C  0.23294652  0.41979912  0.21300068     0.11600
S163        S  0.27661934  0.38695168  0.22342177    -0.06500
C164        C  0.24578081  0.38333936  0.24439199    -0.10000
C165        C  0.22420473  0.40216143  0.23586961    -0.26600
S166        S  0.21443974  0.48640625  0.15912650    -0.03800
C167        C  0.24628172  0.49209506  0.14067656    -0.17300
C168        C  0.26790926  0.47330065  0.14879201    -0.15300
H169        H  0.29630097  0.42777595  0.17636664     0.20100
H170        H  0.19507040  0.44584383  0.20635886     0.16200
H171        H  0.20352328  0.40386891  0.24639795     0.18700
H172        H  0.28918524  0.47337555  0.13931920     0.12000
C173        C  0.35846295  0.29261249  0.45068122     0.15900
C174        C  0.37366941  0.28038360  0.47437983    -0.33200
C175        C  0.39673304  0.29596468  0.48594226     0.20300
C176        C  0.40384088  0.32288247  0.47494797     0.02500
C177        C  0.38873985  0.33500819  0.45110887    -0.22900
C178        C  0.36612672  0.31909207  0.43904149     0.11600
S179        S  0.33076544  0.27652565  0.43267775    -0.06500
C180        C  0.33005007  0.30524754  0.40830353    -0.10000
C181        C  0.34998944  0.32645690  0.41471814    -0.26600
S182        S  0.43222755  0.33853545  0.49233527    -0.03800
C183        C  0.43509945  0.30815723  0.51405803    -0.17300
C184        C  0.41480912  0.28724690  0.50819372    -0.15300
H185        H  0.36810682  0.25940023  0.48304062     0.20100
H186        H  0.39467433  0.35573639  0.44203074     0.16200
H187        H  0.35342519  0.34575092  0.40177639     0.18700
H188        H  0.41330136  0.26684953  0.51969062     0.12000
C189        C  0.08893738  0.27556451  0.67254600     0.15900
C190        C  0.10397388  0.26519061  0.69722511    -0.33200
C191        C  0.12632448  0.28207230  0.70829004     0.20300
C192        C  0.13393070  0.30782299  0.69499085     0.02500
C193        C  0.11905477  0.31811251  0.67005312    -0.22900
C194        C  0.09613340  0.30158011  0.65947338     0.11600
S195        S  0.06004746  0.25904005  0.65705126    -0.06500
C196        C  0.05700404  0.28784611  0.63320638    -0.10000
C197        C  0.07778064  0.30880127  0.63688694    -0.26600
S198        S  0.16081004  0.32563777  0.71286999    -0.03800
C199        C  0.16152937  0.29827376  0.73887835    -0.17300
C200        C  0.14198893  0.27648217  0.73332650    -0.15300
H201        H  0.09796268  0.24520456  0.70790058     0.20100
H202        H  0.12446897  0.33854266  0.65999270     0.16200
H203        H  0.07911237  0.32843543  0.62402400     0.18700
H204        H  0.13839273  0.25796342  0.74740515     0.12000
C205        C  0.23743726  0.18432154  0.93666177     0.15900
C206        C  0.22571127  0.16655214  0.95873514    -0.33200
C207        C  0.24394698  0.14695686  0.97279587     0.20300
C208        C  0.27264111  0.14522551  0.96541978     0.02500
C209        C  0.28421595  0.16259404  0.94287500    -0.22900
C210        C  0.26589640  0.18204629  0.92862537     0.11600
S211        S  0.21905242  0.20988201  0.91746149    -0.06500
C212        C  0.24978874  0.21712012  0.89747419    -0.10000
C213        C  0.27305336  0.20052726  0.90600688    -0.26600
S214        S  0.29140956  0.12090947  0.98610009    -0.03800
C215        C  0.26013433  0.11270243  0.00451202    -0.17300
C216        C  0.23659545  0.12814433  0.99498987    -0.15300
H217        H  0.20339203  0.16808762  0.96485058     0.20100
H218        H  0.30655977  0.16111979  0.93680492     0.16200
H219        H  0.29414126  0.20144083  0.89620709     0.18700
H220        H  0.21529178  0.12602615  0.00415443     0.12000
C221        C  0.37214617  0.32884367  0.71398786     0.15900
C222        C  0.39528771  0.33857377  0.69672533    -0.33200
C223        C  0.40723225  0.31945673  0.67582282     0.20300
C224        C  0.39665052  0.29185064  0.67234095     0.02500
C225        C  0.37323799  0.28230289  0.68924298    -0.22900
C226        C  0.36124658  0.30145260  0.71002383     0.11600
S227        S  0.35565334  0.34803299  0.74172318    -0.06500
C228        C  0.33370293  0.31884739  0.74810729    -0.10000
C229        C  0.33895752  0.29582247  0.72907552    -0.26600
S230        S  0.41451714  0.27171038  0.64637857    -0.03800
C231        C  0.43628567  0.30090038  0.63968257    -0.17300
C232        C  0.42988046  0.32482452  0.65702888    -0.15300
H233        H  0.40384338  0.35999399  0.69971653     0.20100
H234        H  0.36490638  0.26076087  0.68653077     0.16200
H235        H  0.32766457  0.27553903  0.72990874     0.18700
H236        H  0.44118691  0.34508750  0.65593140     0.12000
C237        C  0.25624183  0.44941359  0.98244303     0.15900
C238        C  0.26571131  0.42683603  0.96429644    -0.33200
C239        C  0.24652518  0.41555291  0.94347644     0.20300
C240        C  0.21902471  0.42610156  0.94085920     0.02500
C241        C  0.20921417  0.44815916  0.95970262    -0.22900
C242        C  0.22854353  0.45965441  0.98041863     0.11600
S243        S  0.27706265  0.46727915  0.00743225    -0.06500
C244        C  0.24817218  0.48875801  0.01555070    -0.10000
C245        C  0.23254880  0.98476050  0.99146500    -0.26600
S246        S  0.20017023  0.41129015  0.91207976    -0.03800
C247        C  0.22978023  0.39075521  0.90339194    -0.17300
C248        C  0.25252435  0.39488296  0.92264596    -0.15300
H249        H  0.28740701  0.41899413  0.96570187     0.20100
H250        H  0.18782005  0.45665028  0.95761039     0.16200
H251        H  0.21287153  0.99694153  0.99151905     0.18700
H252        H  0.27297426  0.38426682  0.92057199     0.12000
C253        C  0.24238506  0.86898198  0.87381933     0.86400
C254        C  0.21504724  0.86750714  0.85196840    -0.53800
C255        C  0.21810861  0.84985083  0.82734801     0.09300
C256        C  0.24800167  0.83908500  0.82898210     0.20300
C257        C  0.24519004  0.83698516  0.88322365    -0.54500
C258        C  0.24830883  0.81912636  0.85920625     0.09400
C259        C  0.27140599  0.87366951  0.85490969    -0.54100
C260        C  0.27500880  0.85588842  0.83059010     0.10000
H261        H  0.19384131  0.87250874  0.86018373     0.14500
H262        H  0.24909484  0.84225813  0.80485780     0.00300
H263        H  0.24478157  0.82950427  0.90613408     0.14800
H264        H  0.28970833  0.88431794  0.86467914     0.14600
C265        C  0.32184888  0.80750797  0.77556539     0.86400
C266        C  0.32558952  0.77978410  0.79686323    -0.53800
C267        C  0.30683139  0.77805019  0.82063849     0.09300
C268        C  0.29018814  0.80531488  0.81940017     0.20300
C269        C  0.29058127  0.80389520  0.76505930    -0.54500
C270        C  0.27182953  0.80262823  0.78840619     0.09400
C271        C  0.31940710  0.83665397  0.79515489    -0.54100
C272        C  0.30080140  0.83549326  0.81909922     0.10000
H273        H  0.33635917  0.76061919  0.78886939     0.14500
H274        H  0.29203943  0.80609205  0.84365651     0.00300
H275        H  0.28417159  0.80255511  0.74187266     0.14800
H276        H  0.32472038  0.85737078  0.78557578     0.14600
C277        C  0.25579498  0.73520779  0.87664532     0.86400
C278        C  0.28568585  0.73621792  0.85844758    -0.53800
C279        C  0.28581657  0.75310783  0.83312795     0.09300
C280        C  0.25594598  0.76380448  0.83058958     0.20300
C281        C  0.25195863  0.76746178  0.88469462    -0.54500
C282        C  0.25186803  0.78462579  0.85994276     0.09400
C283        C  0.22927809  0.73005393  0.85443466    -0.54100
C284        C  0.22886728  0.74703361  0.82921432     0.10000
H285        H  0.30570898  0.73234966  0.86976955     0.14500
H286        H  0.25792738  0.75987733  0.80663454     0.00300
H287        H  0.24956146  0.77560922  0.90723954     0.14800
H288        H  0.20978777  0.72003978  0.86237750     0.14600
C289        C  0.18989339  0.79390611  0.76698594     0.86400
C290        C  0.18362548  0.82225074  0.78670298    -0.53800
C291        C  0.19889247  0.82456508  0.81283198     0.09300
C292        C  0.21544549  0.79723965  0.81460747     0.20300
C293        C  0.22223320  0.79702300  0.76059828    -0.54500
C294        C  0.23774057  0.79901446  0.78620619     0.09400
C295        C  0.18957671  0.76526947  0.78749999    -0.54100
C296        C  0.20482299  0.76707182  0.81376627     0.10000
H297        H  0.17433016  0.84125605  0.77665235     0.14500
H298        H  0.21050223  0.79714773  0.83843200     0.00300
H299        H  0.23162572  0.79767129  0.73844967     0.14800
H300        H  0.18620507  0.74430892  0.77753842     0.14600
C301        C  0.31811628  0.80781285  0.37630414     0.86400
C302        C  0.31929417  0.83724322  0.35703728    -0.53800
C303        C  0.30286632  0.83741893  0.33145532     0.09300
C304        C  0.29043524  0.80800712  0.32986905     0.20300
C305        C  0.28586767  0.80629630  0.38403684    -0.54500
C306        C  0.26920523  0.80641414  0.35910919     0.09400
C307        C  0.32191195  0.78008533  0.35506395    -0.54100
C308        C  0.30536903  0.77971765  0.32978569     0.10000
H309        H  0.32433416  0.85754621  0.36764054     0.14500
H310        H  0.29461450  0.80874491  0.30587740     0.00300
H311        H  0.27736475  0.80518247  0.40654993     0.14800
H312        H  0.33070085  0.76018001  0.36362393     0.14600
C313        C  0.25165218  0.87410241  0.27178684     0.86400
C314        C  0.27918135  0.87708419  0.29308316    -0.53800
C315        C  0.27949657  0.85943397  0.31780777     0.09300
C316        C  0.25139851  0.84438945  0.31705693     0.20300
C317        C  0.25323318  0.84202857  0.26271399    -0.54500
C318        C  0.25317838  0.82426795  0.28687474     0.09400
C319        C  0.22238381  0.87445654  0.29112086    -0.54100
C320        C  0.22212232  0.85691722  0.31600688     0.10000
H321        H  0.29893621  0.88618724  0.28468480     0.14500
H322        H  0.25053215  0.84749557  0.34121449     0.00300
H323        H  0.25434415  0.83438638  0.23987256     0.14800
H324        H  0.20224532  0.87980045  0.28072364     0.14600
C325        C  0.18513219  0.80236982  0.37291476     0.86400
C326        C  0.18518792  0.77393402  0.35211640    -0.53800
C327        C  0.20282245  0.77506051  0.32743831     0.09300
C328        C  0.21517994  0.80454759  0.32789970     0.20300
C329        C  0.21691928  0.80377362  0.38223006    -0.54500
C330        C  0.23484725  0.80492628  0.35819783     0.09400
C331        C  0.18225499  0.83113474  0.35294878    -0.54100
C332        C  0.20015560  0.83275822  0.32844226     0.10000
H333        H  0.18012055  0.75302950  0.36133146     0.14500
H334        H  0.21230465  0.80479243  0.30371795     0.00300
H335        H  0.22425542  0.80378817  0.40515387     0.14800
H336        H  0.17296210  0.85054952  0.36218928     0.14600
C337        C  0.25742321  0.74032376  0.26934566     0.86400
C338        C  0.22849839  0.73692089  0.28886636    -0.53800
C339        C  0.22688473  0.75358538  0.31422296     0.09300
C340        C  0.25490737  0.76861789  0.31554485     0.20300
C341        C  0.25606545  0.77269580  0.26125733    -0.54500
C342        C  0.25473720  0.78969989  0.28613518     0.09400
C343        C  0.28532385  0.73928520  0.29014308    -0.54100
C344        C  0.28416663  0.75612928  0.31544355     0.10000
H345        H  0.20883302  0.73009412  0.27835391     0.14500
H346        H  0.25447062  0.76452737  0.33955922     0.00300
H347        H  0.25621206  0.78103648  0.23867217     0.14800
H348        H  0.30577696  0.73273161  0.28101049     0.14600
O349        O  0.27386321  0.51909592  0.04852053    -0.71800
O350        O  0.27982160  0.58038785  0.10440207    -0.72100
O351        O  0.27364121  0.52252784  0.10822043    -0.71900
O352        O  0.27987409  0.57644891  0.04446555    -0.71900
O353        O  0.23411270  0.58351606  0.04648631    -0.71900
O354        O  0.22748460  0.52561059  0.10586673    -0.71900
O355        O  0.23354757  0.58264202  0.10632249    -0.71900
O356        O  0.22811137  0.52589656  0.04585028    -0.72000
V357        V  0.27596138  0.54974319  0.07640284     1.35200
V358        V  0.23171541  0.55436272  0.07608629     1.35200
C359        C  0.25004643  0.51225095  0.03746649     0.77400
C360        C  0.25747903  0.59130157  0.11548303     0.77400
C361        C  0.24936785  0.51437469  0.11739731     0.77300
C362        C  0.25805291  0.58953052  0.03502365     0.77300
O363        O  0.03407649  0.81530920  0.54273733    -0.71800
O364        O  0.47451979  0.81722910  0.60512274    -0.72100
O365        O  0.03607277  0.81517007  0.60220403    -0.71900
O366        O  0.47366178  0.82107121  0.54522014    -0.71900
O367        O  0.47227813  0.77458827  0.54088917    -0.71900
O368        O  0.03050607  0.76884127  0.60372092    -0.71900
O369        O  0.47095979  0.77089891  0.60067533    -0.71900
O370        O  0.03138960  0.76870803  0.54377460    -0.72000
V371        V  0.50256679  0.81696672  0.57423273     1.35200
V372        V  0.50050479  0.77226229  0.57143307     1.35200
C373        C  0.04253584  0.79120879  0.53311603     0.77400
C374        C  0.46282673  0.79391750  0.61305780     0.77400
C375        C  0.04333361  0.79107404  0.61272556     0.77300
C376        C  0.46333136  0.79906455  0.53286497     0.77300
C377        C  0.24880538  0.64010369  0.18289181     0.15900
C378        C  0.23902961  0.65312439  0.20896989    -0.33200
C379        C  0.25110502  0.67937194  0.21695352     0.20300
C380        C  0.27231705  0.69223389  0.20002685     0.02500
C381        C  0.28254124  0.67891272  0.17386792    -0.22900
C382        C  0.27020890  0.65245747  0.16570184     0.11600
S383        S  0.23515787  0.60909542  0.16911513    -0.06500
C384        C  0.25850301  0.61227533  0.13978454    -0.10000
C385        C  0.27626416  0.63615326  0.14081565    -0.26600
S386        S  0.28394058  0.72427415  0.21437902    -0.03800
C387        C  0.25954847  0.72013831  0.24310760    -0.17300
C388        C  0.24383846  0.69502897  0.24148569    -0.15300
H389        H  0.22230119  0.64338312  0.22228411     0.20100
H390        H  0.29909061  0.68876294  0.16045154     0.16200
H391        H  0.29184814  0.64171421  0.12390315     0.18700
H392        H  0.22829741  0.68795899  0.25779011     0.12000
C393        C  0.13703693  0.81194371  0.44299730     0.15900
C394        C  0.12225916  0.82238873  0.46797821    -0.33200
C395        C  0.10108794  0.80477904  0.48046977     0.20300
C396        C  0.09538718  0.77765735  0.46914109     0.02500
C397        C  0.11010206  0.76727940  0.44409231    -0.22900
C398        C  0.13075259  0.78521465  0.43113505     0.11600
S399        S  0.16294118  0.83024160  0.42410279    -0.06500
C400        C  0.16497051  0.80186158  0.39936934    -0.10000
C401        C  0.14643202  0.77941193  0.40601393    -0.26600
S402        S  0.06886426  0.75965119  0.48748201    -0.03800
C403        C  0.06474909  0.78940130  0.50996236    -0.17300
C404        C  0.08345175  0.81169791  0.50382136    -0.15300
H405        H  0.12670517  0.84351083  0.47694997     0.20100
H406        H  0.10532458  0.74636183  0.43480174     0.16200
H407        H  0.14407572  0.75988443  0.39324499     0.18700
H408        H  0.08391906  0.83198756  0.51564040     0.12000
C409        C  0.26612139  0.92203868  0.20269029     0.15900
C410        C  0.27804290  0.93628135  0.17807799    -0.33200
C411        C  0.26272470  0.95939549  0.16606457     0.20300
C412        C  0.23653038  0.96764070  0.17774764     0.02500
C413        C  0.22479701  0.95359440  0.20249407    -0.22900
C414        C  0.24026245  0.93075573  0.21471841     0.11600
S415        S  0.28143600  0.89385494  0.22087086    -0.06500
C416        C  0.25292097  0.89413968  0.24536878    -0.10000
C417        C  0.23261692  0.91497198  0.23920631    -0.26600
S418        S  0.22077438  0.99552265  0.15952954    -0.03800
C419        C  0.24996729  0.99643773  0.13620518    -0.17300
C420        C  0.27075568  0.97615312  0.14235087    -0.15300
H421        H  0.29841057  0.92974478  0.16881650     0.20100
H422        H  0.20451914  0.96021901  0.21185184     0.16200
H423        H  0.21354492  0.91899817  0.25215183     0.18700
H424        H  0.29040658  0.97353578  0.12984338     0.12000
C425        C  0.36549305  0.79082367  0.44479552     0.15900
C426        C  0.38028268  0.77730443  0.46804596    -0.33200
C427        C  0.40371357  0.79182826  0.48027835     0.20300
C428        C  0.41160863  0.81886980  0.47020293     0.02500
C429        C  0.39699534  0.83222635  0.44680872    -0.22900
C430        C  0.37395068  0.81747282  0.43421210     0.11600
S431        S  0.33719036  0.77641808  0.42629898    -0.06500
C432        C  0.33726848  0.80618830  0.40329842    -0.10000
C433        C  0.35794667  0.82638869  0.41042335    -0.26600
S434        S  0.43998121  0.83340634  0.48841302    -0.03800
C435        C  0.44176670  0.80249119  0.50940926    -0.17300
C436        C  0.42122077  0.78211142  0.50262364    -0.15300
H437        H  0.37400832  0.75625081  0.47600104     0.20100
H438        H  0.40348833  0.85313133  0.43858999     0.16200
H439        H  0.36192859  0.84611445  0.39836496     0.18700
H440        H  0.41895766  0.76158018  0.51373412     0.12000
C441        C  0.09725091  0.77489509  0.67426435     0.15900
C442        C  0.11187475  0.76361163  0.69872376    -0.33200
C443        C  0.13556181  0.77882650  0.70915419     0.20300
C444        C  0.14479598  0.80384270  0.69543386     0.02500
C445        C  0.13027609  0.81507862  0.67071293    -0.22900
C446        C  0.10602820  0.80022377  0.66077209     0.11600
S447        S  0.06733320  0.76008157  0.65930872    -0.06500
C448        C  0.06606090  0.78861042  0.63501683    -0.10000
C449        C  0.08800044  0.80837339  0.63823889    -0.26600
S450        S  0.17302366  0.81983622  0.71272753    -0.03800
C451        C  0.17187942  0.79286695  0.73917530    -0.17300
C452        C  0.15101215  0.77235306  0.73407533    -0.15300
H453        H  0.10461598  0.74419205  0.70968270     0.20100
H454        H  0.13700177  0.83495366  0.66034677     0.16200
H455        H  0.09060546  0.82753178  0.62483340     0.18700
H456        H  0.14620828  0.75440626  0.74858008     0.12000
C457        C  0.24269133  0.68644983  0.94573948     0.15900
C458        C  0.23130521  0.67175079  0.97037468    -0.33200
C459        C  0.24716530  0.64879402  0.98205026     0.20300
C460        C  0.27332320  0.64102423  0.96997426     0.02500
C461        C  0.28459089  0.65561105  0.94527007    -0.22900
C462        C  0.26864065  0.67838461  0.93345737     0.11600
S463        S  0.22657817  0.71441834  0.92777779    -0.06500
C464        C  0.25507605  0.71522069  0.90325762    -0.10000
C465        C  0.27581043  0.69467421  0.90913121    -0.26600
S466        S  0.28944257  0.61284685  0.98755643    -0.03800
C467        C  0.26043518  0.61116753  0.01117772    -0.17300
C468        C  0.23955031  0.63157379  0.00559590    -0.15300
H469        H  0.21090431  0.67777975  0.97986063     0.20100
H470        H  0.30488400  0.64940443  0.93558964     0.16200
H471        H  0.29487211  0.69110743  0.89595466     0.18700
H472        H  0.21992758  0.63376319  0.01818732     0.12000
C473        C  0.37938593  0.81921116  0.71385569     0.15900
C474        C  0.40110614  0.82967731  0.69525201    -0.33200
C475        C  0.41220733  0.81108319  0.67349184     0.20300
C476        C  0.40213644  0.78324746  0.67031302     0.02500
C477        C  0.37996986  0.77293661  0.68858813    -0.22900
C478        C  0.36887310  0.79159372  0.71041532     0.11600
S479        S  0.36422245  0.83800980  0.74249354    -0.06500
C480        C  0.34310887  0.80849743  0.75002086    -0.10000
C481        C  0.34782671  0.78544700  0.73085446    -0.26600
S482        S  0.41941301  0.76378467  0.64333118    -0.03800
C483        C  0.44020885  0.79360448  0.63610224    -0.17300
C484        C  0.43383745  0.81720509  0.65380649    -0.15300
H485        H  0.40932813  0.85126699  0.69794081     0.20100
H486        H  0.37202868  0.75121775  0.68620254     0.16200
H487        H  0.33675086  0.76507349  0.73218783     0.18700
H488        H  0.44474788  0.83768678  0.65262265     0.12000
C489        C  0.26483389  0.95034797  0.97773871     0.15900
C490        C  0.27432225  0.92665719  0.96112805    -0.33200
C491        C  0.25596589  0.91560041  0.93931032     0.20300
C492        C  0.22939968  0.92760031  0.93414608     0.02500
C493        C  0.21964145  0.95088465  0.95119678    -0.22900
C494        C  0.23796608  0.96190149  0.97305626     0.11600
S495        S  0.28433587  0.96772570  0.00435921    -0.06500
C496        C  0.25577319  0.99047794  0.00955958    -0.10000
C497        C  0.22367643  0.48213823  0.99965441    -0.26600
S498        S  0.21133950  0.91246400  0.90510680    -0.03800
C499        C  0.23990371  0.88959032  0.89978856    -0.17300
C500        C  0.26184685  0.89347825  0.92009504    -0.15300
H501        H  0.29528689  0.91757679  0.96466618     0.20100
H502        H  0.19891857  0.96034555  0.94722200     0.16200
H503        H  0.20363359  0.49354201  0.00159710     0.18700
H504        H  0.28163117  0.88149512  0.91994854     0.12000
C505        C  0.73514858  0.37656908  0.87521426     0.86400
C506        C  0.70760393  0.37441588  0.85365756    -0.53800
C507        C  0.71076352  0.35663332  0.82909593     0.09300
C508        C  0.74087962  0.34656152  0.83049810     0.20300
C509        C  0.73866256  0.34461415  0.88474158    -0.54500
C510        C  0.74188665  0.32667794  0.86076479     0.09400
C511        C  0.76383075  0.38179423  0.85600508    -0.54100
C512        C  0.76752479  0.36405512  0.83173352     0.10000
H513        H  0.68641166  0.37911009  0.86211028     0.14500
H514        H  0.74164987  0.34974544  0.80637897     0.00300
H515        H  0.73868057  0.33722668  0.90769069     0.14800
H516        H  0.78200385  0.39285359  0.86555007     0.14600
C517        C  0.81514490  0.31708321  0.77642189     0.86400
C518        C  0.81969008  0.28943064  0.79769795    -0.53800
C519        C  0.80115472  0.28717905  0.82161201     0.09300
C520        C  0.78379083  0.31399183  0.82038939     0.20300
C521        C  0.78388601  0.31272109  0.76607303    -0.54500
C522        C  0.76529042  0.31087407  0.78949529     0.09400
C523        C  0.81218713  0.34610812  0.79599312    -0.54100
C524        C  0.79371921  0.34440426  0.82001886     0.10000
H525        H  0.83101731  0.27059661  0.78969085     0.14500
H526        H  0.78567519  0.31479120  0.84462245     0.00300
H527        H  0.77737677  0.31125323  0.74292354     0.14800
H528        H  0.81704689  0.36692471  0.78638803     0.14600
C529        C  0.75136588  0.24263066  0.87778114     0.86400
C530        C  0.78126827  0.24458922  0.85961388    -0.53800
C531        C  0.78090210  0.26167781  0.83436760     0.09300
C532        C  0.75079742  0.27166661  0.83200511     0.20300
C533        C  0.74665245  0.27478099  0.88609587    -0.54500
C534        C  0.74627749  0.29220179  0.86146539     0.09400
C535        C  0.72511682  0.23694122  0.85537288    -0.54100
C536        C  0.72419814  0.25417813  0.83046939     0.10000
H537        H  0.80139151  0.24112271  0.87085681     0.14500
H538        H  0.75279904  0.26791894  0.80804367     0.00300
H539        H  0.74392703  0.28266059  0.90870666     0.14800
H540        H  0.70594589  0.22604157  0.86289705     0.14600
C541        C  0.68314639  0.29988706  0.76891558     0.86400
C542        C  0.67643070  0.32805803  0.78882154    -0.53800
C543        C  0.69206206  0.33082872  0.81468412     0.09300
C544        C  0.70935379  0.30395202  0.81612479     0.20300
C545        C  0.71540250  0.30393090  0.76209709    -0.54500
C546        C  0.73124321  0.30632949  0.78751840     0.09400
C547        C  0.68389247  0.27127322  0.78937228    -0.54100
C548        C  0.69950121  0.27353144  0.81534338     0.10000
H549        H  0.66633980  0.34677268  0.77902110     0.14500
H550        H  0.70465293  0.30369824  0.83997543     0.00300
H551        H  0.72448264  0.30486386  0.73982198     0.14800
H552        H  0.68089737  0.25022110  0.77949636     0.14600
C553        C  0.80929264  0.30053372  0.37674057     0.86400
C554        C  0.81513049  0.32989063  0.35836127    -0.53800
C555        C  0.79871982  0.33375223  0.33312105     0.09300
C556        C  0.78185154  0.30674480  0.33055312     0.20300
C557        C  0.77707458  0.30380007  0.38460810    -0.54500
C558        C  0.76053375  0.30720127  0.35970151     0.09400
C559        C  0.80846317  0.27317394  0.35442485    -0.54100
C560        C  0.79237531  0.27658087  0.32904216     0.10000
H561        H  0.82514821  0.34823095  0.36894883     0.14500
H562        H  0.78616159  0.30784114  0.30668086     0.00300
H563        H  0.76851544  0.30331038  0.40712471     0.14800
H564        H  0.81245133  0.25159716  0.36249347     0.14600
C565        C  0.75423288  0.38134700  0.27527291     0.86400
C566        C  0.78195335  0.37868792  0.29653066    -0.53800
C567        C  0.77932238  0.35980008  0.32021000     0.09300
C568        C  0.74935317  0.34918900  0.31849116     0.20300
C569        C  0.75114427  0.34981837  0.26421462    -0.54500
C570        C  0.74837059  0.33077425  0.28726946     0.09400
C571        C  0.72554247  0.38511379  0.29496799    -0.54100
C572        C  0.72240202  0.36614491  0.31839122     0.10000
H573        H  0.80301606  0.38422768  0.28828189     0.14500
H574        H  0.74871111  0.35098030  0.34273902     0.00300
H575        H  0.75112362  0.34347387  0.24093024     0.14800
H576        H  0.70707697  0.39619060  0.28609944     0.14600
C577        C  0.67620129  0.31560179  0.37203560     0.86400
C578        C  0.67221352  0.28873167  0.34955860    -0.53800
C579        C  0.69067524  0.28799131  0.32543778     0.09300
C580        C  0.70749284  0.31507988  0.32789121     0.20300
C581        C  0.70768286  0.31146501  0.38207134    -0.54500
C582        C  0.72627726  0.31101709  0.35844400     0.09400
C583        C  0.67854921  0.34546963  0.35368229    -0.54100
C584        C  0.69690148  0.34523079  0.32955164     0.10000
H585        H  0.66152380  0.26928287  0.35684276     0.14500
H586        H  0.70521412  0.31692940  0.30376938     0.00300
H587        H  0.71432440  0.30919962  0.40510337     0.14800
H588        H  0.67337749  0.36581866  0.36418425     0.14600
C589        C  0.74027794  0.24770121  0.26570793     0.86400
C590        C  0.71079768  0.24787861  0.28470804    -0.53800
C591        C  0.71126395  0.26364720  0.31087260     0.09300
C592        C  0.74116763  0.27427423  0.31312661     0.20300
C593        C  0.74397809  0.28031571  0.25920690    -0.54500
C594        C  0.74467693  0.29636626  0.28478810     0.09400
C595        C  0.76723037  0.24154901  0.28702441    -0.54100
C596        C  0.76812441  0.25735537  0.31302528     0.10000
H597        H  0.69053973  0.24420014  0.27376580     0.14500
H598        H  0.73976699  0.26959647  0.33687636     0.00300
H599        H  0.74592123  0.28947028  0.23703657     0.14800
H600        H  0.78654699  0.23185925  0.27820728     0.14600
O601        O  0.77630518  0.02482396  0.05120925    -0.71800
O602        O  0.76915239  0.09009532  0.10252568    -0.72100
O603        O  0.77131637  0.03250188  0.11006384    -0.71900
O604        O  0.77463338  0.08223926  0.04320741    -0.71900
O605        O  0.72837876  0.08474945  0.04308023    -0.71900
O606        O  0.72599463  0.02623331  0.10258718    -0.71900
O607        O  0.72322409  0.08398885  0.10292201    -0.71900
O608        O  0.73067800  0.02705641  0.04330766    -0.72000
V609        V  0.77206876  0.05746231  0.07672092     1.35200
V610        V  0.72787542  0.05559300  0.07303883     1.35200
C611        C  0.75443194  0.01527004  0.03807566     0.77400
C612        C  0.74478965  0.09746119  0.11222307     0.77400
C613        C  0.74842286  0.01959709  0.11658922     0.77300
C614        C  0.75211155  0.09270446  0.03229415     0.77300
O615        O  0.52560068  0.32246276  0.54490563    -0.71800
O616        O  0.96910125  0.31946897  0.60638383    -0.72100
O617        O  0.52901123  0.31887718  0.60455374    -0.71900
O618        O  0.96431760  0.32015022  0.54675998    -0.71900
O619        O  0.96229108  0.27360356  0.54397887    -0.71900
O620        O  0.52336770  0.27255578  0.60413430    -0.71900
O621        O  0.96271026  0.27331548  0.60377333    -0.71900
O622        O  0.52417332  0.27582649  0.54418307    -0.72000
V623        V  0.99527430  0.31635799  0.57391210     1.35200
V624        V  0.99123318  0.27173660  0.57355183     1.35200
C625        C  0.53455522  0.29901413  0.53411430     0.77400
C626        C  0.95625044  0.29720556  0.61543890     0.77400
C627        C  0.53633792  0.29437335  0.61401554     0.77300
C628        C  0.95290117  0.29785307  0.53591325     0.77300
C629        C  0.72561721  0.15258899  0.17278566     0.15900
C630        C  0.71334065  0.16760354  0.19672047    -0.33200
C631        C  0.72808561  0.19149987  0.20786951     0.20300
C632        C  0.75364296  0.20044852  0.19535810     0.02500
C633        C  0.76587315  0.18552173  0.17124433    -0.22900
C634        C  0.75145645  0.16116999  0.16054237     0.11600
S635        S  0.71155608  0.12241377  0.15700670    -0.06500
C636        C  0.74112411  0.12079214  0.13412571    -0.10000
C637        C  0.76058712  0.14285039  0.13839274    -0.26600
S638        S  0.76879785  0.22907857  0.21316151    -0.03800
C639        C  0.74062759  0.22877997  0.23814460    -0.17300
C640        C  0.72048367  0.20762506  0.23227203    -0.15300
H641        H  0.69345874  0.16053892  0.20670225     0.20100
H642        H  0.78615550  0.19210187  0.16182248     0.16200
H643        H  0.78032751  0.14528562  0.12604213     0.18700
H644        H  0.70186582  0.20321040  0.24584530     0.12000
C645        C  0.61731811  0.32567097  0.43293232     0.15900
C646        C  0.59502660  0.33559142  0.45118478    -0.33200
C647        C  0.58427722  0.31684475  0.47299797     0.20300
C648        C  0.59513010  0.28934482  0.47643543     0.02500
C649        C  0.61779961  0.27958445  0.45845836    -0.22900
C650        C  0.62863481  0.29841690  0.43665540     0.11600
S651        S  0.63242357  0.34479047  0.40452339    -0.06500
C652        C  0.65469564  0.31596632  0.39749321    -0.10000
C653        C  0.65022366  0.29280854  0.41656727    -0.26600
S654        S  0.57830460  0.26961202  0.50352477    -0.03800
C655        C  0.55673272  0.29888696  0.51057509    -0.17300
C656        C  0.56248211  0.32253010  0.49268508    -0.15300
H657        H  0.58624331  0.35692271  0.44830567     0.20100
H658        H  0.62638823  0.25815333  0.46112041     0.16200
H659        H  0.66186283  0.27275150  0.41542299     0.18700
H660        H  0.55109945  0.34274956  0.49383124     0.12000
C661        C  0.76740060  0.44158688  0.21626156     0.15900
C662        C  0.77767236  0.46453035  0.19893658    -0.33200
C663        C  0.75981297  0.47538037  0.17648702     0.20300
C664        C  0.73288691  0.46405874  0.17164902     0.02500
C665        C  0.72280181  0.44092505  0.18872190    -0.22900
C666        C  0.74070837  0.42993927  0.21098916     0.11600
S667        S  0.78521047  0.42591376  0.24523634    -0.06500
C668        C  0.75644000  0.40318164  0.25024715    -0.10000
C669        C  0.73448717  0.40776230  0.23008283    -0.26600
S670        S  0.71428228  0.48052071  0.14371886    -0.03800
C671        C  0.74323454  0.50262623  0.13805366    -0.17300
C672        C  0.76593595  0.49743304  0.15715701    -0.15300
H673        H  0.79856093  0.47360358  0.20287025     0.20100
H674        H  0.70184220  0.43194592  0.18489740     0.16200
H675        H  0.71466400  0.39585591  0.22989384     0.18700
H676        H  0.78587904  0.50912542  0.15685608     0.12000
C677        C  0.86428342  0.28154962  0.43878797     0.15900
C678        C  0.88568154  0.26885447  0.45611330    -0.33200
C679        C  0.89852351  0.28572407  0.47821731     0.20300
C680        C  0.89033523  0.31398578  0.48298120     0.02500
C681        C  0.86835029  0.32646245  0.46611070    -0.22900
C682        C  0.85555253  0.30957039  0.44384768     0.11600
S683        S  0.84800969  0.26536056  0.40934990    -0.06500
C684        C  0.82886606  0.29656895  0.40343258    -0.10000
C685        C  0.83484003  0.31813588  0.42402373    -0.26600
S686        S  0.90989222  0.33131823  0.50964386    -0.03800
C687        C  0.92914499  0.30010029  0.51451785    -0.17300
C688        C  0.92051163  0.27752966  0.49646937    -0.15300
H689        H  0.89256219  0.24700258  0.45198861     0.20100
H690        H  0.86201456  0.34857689  0.46966447     0.16200
H691        H  0.82539159  0.33935452  0.42373286     0.18700
H692        H  0.93027834  0.25644865  0.49619358     0.12000
C693        C  0.59104266  0.27776936  0.67531527     0.15900
C694        C  0.60614129  0.26665216  0.69968650    -0.33200
C695        C  0.62887811  0.28298516  0.71092395     0.20300
C696        C  0.63666762  0.30888089  0.69802956     0.02500
C697        C  0.62165368  0.31995332  0.67360248    -0.22900
C698        C  0.59846179  0.30400389  0.66286872     0.11600
S699        S  0.56204533  0.26189044  0.65921434    -0.06500
C700        C  0.55937143  0.29130563  0.63606619    -0.10000
C701        C  0.58025621  0.31196799  0.64045288    -0.26600
S702        S  0.66401588  0.32599745  0.71568126    -0.03800
C703        C  0.66462929  0.29837614  0.74134820    -0.17300
C704        C  0.64483315  0.27679718  0.73571010    -0.15300
H705        H  0.59998311  0.24649487  0.70991502     0.20100
H706        H  0.62728533  0.34050557  0.66394213     0.16200
H707        H  0.58190191  0.33184479  0.62802781     0.18700
H708        H  0.64123084  0.25815770  0.74962982     0.12000
C709        C  0.73638258  0.18990971  0.94329693     0.15900
C710        C  0.72364211  0.17276291  0.96538833    -0.33200
C711        C  0.74005303  0.15059548  0.97781609     0.20300
C712        C  0.76797874  0.14586049  0.96877056     0.02500
C713        C  0.78052089  0.16267952  0.94631736    -0.22900
C714        C  0.76405018  0.18473149  0.93378095     0.11600
S715        S  0.72009818  0.21777653  0.92541484    -0.06500
C716        C  0.75056874  0.22209038  0.90405702    -0.10000
C717        C  0.77228564  0.20298215  0.91128669    -0.26600
S718        S  0.78483946  0.11896724  0.98765844    -0.03800
C719        C  0.75388177  0.11381330  0.00783582    -0.17300
C720        C  0.73170516  0.13199561  0.99998641    -0.15300
H721        H  0.70191834  0.17663175  0.97268139     0.20100
H722        H  0.80226103  0.15883947  0.93904003     0.16200
H723        H  0.79276280  0.20164803  0.90017031     0.18700
H724        H  0.71089360  0.13217937  0.01055882     0.12000
C725        C  0.87299069  0.32818093  0.71487758     0.15900
C726        C  0.89545572  0.33766376  0.69654066    -0.33200
C727        C  0.90610660  0.31841497  0.67504087     0.20300
C728        C  0.89474075  0.29108210  0.67186435     0.02500
C729        C  0.87194388  0.28188256  0.68971790    -0.22900
C730        C  0.86146656  0.30099055  0.71128628     0.11600
S731        S  0.85818285  0.34734999  0.74357567    -0.06500
C732        C  0.83619066  0.31835277  0.75079420    -0.10000
C733        C  0.84023155  0.29539360  0.73150476    -0.26600
S734        S  0.91128938  0.27042754  0.64555240    -0.03800
C735        C  0.93378411  0.29888380  0.63847929    -0.17300
C736        C  0.92842670  0.32313208  0.65568975    -0.15300
H737        H  0.90461838  0.35883913  0.69933107     0.20100
H738        H  0.86314141  0.26049699  0.68732630     0.16200
H739        H  0.82862889  0.27530682  0.73272994     0.18700
H740        H  0.94042691  0.34296491  0.65436948     0.12000
C741        C  0.75822113  0.45798556  0.97911989     0.15900
C742        C  0.76717456  0.43379560  0.96292313    -0.33200
C743        C  0.74910868  0.42350736  0.94040010     0.20300
C744        C  0.72335944  0.43674656  0.93411156     0.02500
C745        C  0.71425978  0.46073472  0.95049417    -0.22900
C746        C  0.73224435  0.47091606  0.97310643     0.11600
S747        S  0.77713676  0.47411664  0.00712072    -0.06500
C748        C  0.74949802  0.49821970  0.01104790    -0.10000
C749        C  0.73372091  0.98633872  0.99722691    -0.26600
S750        S  0.70532447  0.42190461  0.90484779    -0.03800
C751        C  0.73279241  0.39748209  0.90093557    -0.17300
C752        C  0.75443983  0.40081112  0.92171547    -0.15300
H753        H  0.78743129  0.42358849  0.96749200     0.20100
H754        H  0.69416480  0.47115482  0.94567351     0.16200
H755        H  0.71438289  0.99903390  0.99599417     0.18700
H756        H  0.77364921  0.38791307  0.92231966     0.12000
C757        C  0.74619389  0.87892648  0.87288378     0.86400
C758        C  0.71763660  0.87835946  0.85265173    -0.53800
C759        C  0.71883549  0.86112489  0.82761720     0.09300
C760        C  0.74855009  0.84977539  0.82723416     0.20300
C761        C  0.74879538  0.84685531  0.88157814    -0.54500
C762        C  0.75017713  0.82940925  0.85717669     0.09400
C763        C  0.77424760  0.88336266  0.85246066    -0.54100
C764        C  0.77595466  0.86602278  0.82750254     0.10000
H765        H  0.69696708  0.88333111  0.86228828     0.14500
H766        H  0.74832357  0.85293021  0.80311048     0.00300
H767        H  0.74944073  0.83900088  0.90434795     0.14800
H768        H  0.79337962  0.89296896  0.86163533     0.14600
C769        C  0.81863318  0.81719590  0.76916008     0.86400
C770        C  0.82283121  0.78914528  0.79002838    -0.53800
C771        C  0.80528220  0.78750426  0.81480294     0.09300
C772        C  0.78912619  0.81510505  0.81452572     0.20300
C773        C  0.78671599  0.81423008  0.76022568    -0.54500
C774        C  0.76902760  0.81308728  0.78460405     0.09400
C775        C  0.81766786  0.84615464  0.78914103    -0.54100
C776        C  0.80038844  0.84506399  0.81407470     0.10000
H777        H  0.83286588  0.76985410  0.78136434     0.14500
H778        H  0.79250941  0.81563069  0.83860020     0.00300
H779        H  0.77916662  0.81325655  0.73741184     0.14800
H780        H  0.82266678  0.86690148  0.77946764     0.14600
C781        C  0.75637182  0.74547660  0.87384932     0.86400
C782        C  0.78542200  0.74576083  0.85408481    -0.53800
C783        C  0.78465160  0.76280272  0.82871183     0.09300
C784        C  0.75498240  0.77425081  0.82787903     0.20300
C785        C  0.75371313  0.77773181  0.88211753    -0.54500
C786        C  0.75296850  0.79494947  0.85747663     0.09400
C787        C  0.72883883  0.74097588  0.85291380    -0.54100
C788        C  0.72753080  0.75814730  0.82803936     0.10000
H789        H  0.80584606  0.74103369  0.86420844     0.14500
H790        H  0.75551351  0.77071015  0.80382623     0.00300
H791        H  0.75248135  0.78583992  0.90478566     0.14800
H792        H  0.70955118  0.73098637  0.86140704     0.14600
C793        C  0.68498589  0.80587133  0.76948637     0.86400
C794        C  0.68075717  0.83428132  0.78975644    -0.53800
C795        C  0.69824296  0.83629414  0.81436183     0.09300
C796        C  0.71437863  0.80872594  0.81465564     0.20300
C797        C  0.71699202  0.80860296  0.76041851    -0.54500
C798        C  0.73460067  0.81019999  0.78468917     0.09400
C799        C  0.68584981  0.77726802  0.78991635    -0.54100
C800        C  0.70309511  0.77882533  0.81464377     0.10000
H801        H  0.67084275  0.85342879  0.78070306     0.14500
H802        H  0.71072002  0.80858226  0.83873045     0.00300
H803        H  0.72466228  0.80915679  0.73755186     0.14800
H804        H  0.68176569  0.75627103  0.78036716     0.14600
C805        C  0.82060054  0.79699896  0.37669173     0.86400
C806        C  0.82657501  0.82604703  0.35785342    -0.53800
C807        C  0.80922137  0.83037639  0.33347601     0.09300
C808        C  0.79150201  0.80382750  0.33178785     0.20300
C809        C  0.78883999  0.80121556  0.38597284    -0.54500
C810        C  0.77137895  0.80494890  0.36187341     0.09400
C811        C  0.81817499  0.76956276  0.35466772    -0.54100
C812        C  0.80107147  0.77334354  0.33001853     0.10000
H813        H  0.83790693  0.84402990  0.36759588     0.14500
H814        H  0.79507774  0.80472206  0.30771404     0.00300
H815        H  0.78121080  0.80111337  0.40885401     0.14800
H816        H  0.82223692  0.74796323  0.36263239     0.14600
C817        C  0.76351360  0.87890326  0.27790850     0.86400
C818        C  0.79218145  0.87568564  0.29765233    -0.53800
C819        C  0.79015151  0.85712515  0.32169733     0.09300
C820        C  0.75983054  0.84747442  0.32180092     0.20300
C821        C  0.75902568  0.84752292  0.26745543    -0.54500
C822        C  0.75689309  0.82889026  0.29077135     0.09400
C823        C  0.73597739  0.88383998  0.29901642    -0.54100
C824        C  0.73336108  0.86521157  0.32277147     0.10000
H825        H  0.81296064  0.88043974  0.28817134     0.14500
H826        H  0.76032913  0.84930863  0.34605884     0.00300
H827        H  0.75768563  0.84094944  0.24427053     0.14800
H828        H  0.71745740  0.89542398  0.29099494     0.14600
C829        C  0.68776732  0.81575249  0.37788953     0.86400
C830        C  0.68216714  0.78914813  0.35550509    -0.53800
C831        C  0.69965479  0.78791845  0.33071193     0.09300
C832        C  0.71730906  0.81452770  0.33253461     0.20300
C833        C  0.71948961  0.81064644  0.38667056    -0.54500
C834        C  0.73717399  0.80979506  0.36223505     0.09400
C835        C  0.69032536  0.84564855  0.35968372    -0.54100
C836        C  0.70773686  0.84498553  0.33483699     0.10000
H837        H  0.67119893  0.76996934  0.36313981     0.14500
H838        H  0.71377942  0.81659365  0.30855249     0.00300
H839        H  0.72690286  0.80803646  0.40939770     0.14800
H840        H  0.68636809  0.86604716  0.37064844     0.14600
C841        C  0.74565510  0.74665992  0.26895680     0.86400
C842        C  0.71690539  0.74740597  0.28908723    -0.53800
C843        C  0.71880985  0.76285692  0.31541007     0.09300
C844        C  0.74908635  0.77248022  0.31669298     0.20300
C845        C  0.74999394  0.77912284  0.26273440    -0.54500
C846        C  0.75210565  0.79473588  0.28841442     0.09400
C847        C  0.77319987  0.73943031  0.28904951    -0.54100
C848        C  0.77558694  0.75483221  0.31520042     0.10000
H849        H  0.69617942  0.74449368  0.27887897     0.14500
H850        H  0.74846691  0.76776950  0.34052939     0.00300
H851        H  0.75135608  0.78850022  0.24063142     0.14800
H852        H  0.79187991  0.72931180  0.27929365     0.14600
O853        O  0.77131334  0.52937252  0.04708749    -0.71800
O854        O  0.76742387  0.59344427  0.10059647    -0.72100
O855        O  0.76757045  0.53586588  0.10679558    -0.71900
O856        O  0.77211572  0.58673212  0.04106589    -0.71900
O857        O  0.72597192  0.59082614  0.04086381    -0.71900
O858        O  0.72189185  0.53183388  0.10016437    -0.71900
O859        O  0.72126148  0.58951656  0.10085036    -0.71900
O860        O  0.72564442  0.53319444  0.04021423    -0.72000
V861        V  0.76879264  0.56136879  0.07384707     1.35200
V862        V  0.72451184  0.56135051  0.07059676     1.35200
C863        C  0.74896359  0.52113928  0.03374052     0.77400
C864        C  0.74340954  0.60166166  0.11054285     0.77400
C865        C  0.74417338  0.52439375  0.11412000     0.77300
C866        C  0.75002342  0.59802960  0.03020463     0.77300
O867        O  0.53055887  0.81845401  0.54349292    -0.71800
O868        O  0.97854667  0.81990326  0.60476320    -0.72100
O869        O  0.53190477  0.81491435  0.60307327    -0.71900
O870        O  0.97661381  0.81997929  0.54484026    -0.71900
O871        O  0.97436088  0.77338492  0.54315815    -0.71900
O872        O  0.52848650  0.76837813  0.60204114    -0.71900
O873        O  0.97333815  0.77356377  0.60292971    -0.71900
O874        O  0.53008493  0.77180187  0.54207300    -0.72000
V875        V  0.00621893  0.81672418  0.57361819     1.35200
V876        V  0.00251135  0.77203958  0.57345095     1.35200
C877        C  0.54027787  0.79532137  0.53270466     0.77400
C878        C  0.96598341  0.79748537  0.61390061     0.77400
C879        C  0.54010507  0.79075070  0.61253474     0.77300
C880        C  0.96550942  0.79747427  0.53409041     0.77300
C881        C  0.72650184  0.65520056  0.17328820     0.15900
C882        C  0.71493189  0.66975605  0.19791521    -0.33200
C883        C  0.73050461  0.69282797  0.20966599     0.20300
C884        C  0.75612840  0.70143932  0.19702262     0.02500
C885        C  0.76764816  0.68696719  0.17228760    -0.22900
C886        C  0.75244819  0.66340630  0.16101025     0.11600
S887        S  0.71140150  0.62604119  0.15658699    -0.06500
C888        C  0.74069778  0.62432623  0.13330344    -0.10000
C889        C  0.76084676  0.64559729  0.13813289    -0.26600
S890        S  0.77238055  0.72899859  0.21539450    -0.03800
C891        C  0.74471800  0.72856861  0.24094142    -0.17300
C892        C  0.72377638  0.70833216  0.23477433    -0.15300
H893        H  0.69498955  0.66294174  0.20793143     0.20100
H894        H  0.78797765  0.69326970  0.16281178     0.16200
H895        H  0.78051959  0.64787109  0.12563684     0.18700
H896        H  0.70526227  0.70410489  0.24857220     0.12000
C897        C  0.62761624  0.82517769  0.43712402     0.15900
C898        C  0.60395456  0.83428056  0.45385452    -0.33200
C899        C  0.59234678  0.81496163  0.47460334     0.20300
C900        C  0.60369110  0.78771253  0.47846418     0.02500
C901        C  0.62766096  0.77876697  0.46201074    -0.22900
C902        C  0.63934276  0.79815437  0.44128599     0.11600
S903        S  0.64369732  0.84485076  0.40975447    -0.06500
C904        C  0.66670927  0.81643889  0.40362682    -0.10000
C905        C  0.66196659  0.79314237  0.42238771    -0.26600
S906        S  0.58589330  0.76723496  0.50418052    -0.03800
C907        C  0.56327177  0.79588690  0.51015971    -0.17300
C908        C  0.56931521  0.81985344  0.49288237    -0.15300
H909        H  0.59478796  0.85538851  0.45059406     0.20100
H910        H  0.63657604  0.75750618  0.46495127     0.16200
H911        H  0.67377435  0.77316308  0.42140725     0.18700
H912        H  0.55742652  0.83979232  0.49362193     0.12000
C913        C  0.77543716  0.93530482  0.21537592     0.15900
C914        C  0.78555663  0.95704299  0.19656413    -0.33200
C915        C  0.76663299  0.96828170  0.17546190     0.20300
C916        C  0.73895293  0.95814042  0.17283725     0.02500
C917        C  0.72905426  0.93585553  0.19116505    -0.22900
C918        C  0.74791361  0.92484861  0.21253092     0.11600
S919        S  0.79436076  0.92039644  0.24388662    -0.06500
C920        C  0.76489359  0.89969074  0.25213736    -0.10000
C921        C  0.74189931  0.90415069  0.23326940    -0.26600
S922        S  0.71900415  0.97568524  0.14671374    -0.03800
C923        C  0.74830344  0.99693332  0.13941817    -0.17300
C924        C  0.77217527  0.99034899  0.15618714    -0.15300
H925        H  0.80698925  0.96538867  0.19882114     0.20100
H926        H  0.70741902  0.92793888  0.18936045     0.16200
H927        H  0.72159096  0.89321926  0.23511710     0.18700
H928        H  0.79244570  0.00138986  0.15462427     0.12000
C929        C  0.87657096  0.77856189  0.43782164     0.15900
C930        C  0.89785883  0.76612453  0.45553931    -0.33200
C931        C  0.91159314  0.78381911  0.47638881     0.20300
C932        C  0.90446530  0.81259210  0.47942282     0.02500
C933        C  0.88267164  0.82479023  0.46225937    -0.22900
C934        C  0.86889389  0.80709295  0.44148002     0.11600
S935        S  0.85898839  0.76148911  0.40966090    -0.06500
C936        C  0.84080883  0.79309292  0.40272128    -0.10000
C937        C  0.84796630  0.81532752  0.42197290    -0.26600
S938        S  0.92460400  0.83083759  0.50481615    -0.03800
C939        C  0.94255334  0.79929603  0.51183673    -0.17300
C940        C  0.93327488  0.77597699  0.49517545    -0.15300
H941        H  0.90388552  0.74381677  0.45273855     0.20100
H942        H  0.87706132  0.84725142  0.46460551     0.16200
H943        H  0.83912966  0.83678889  0.42097197     0.18700
H944        H  0.94216666  0.75453516  0.49647280     0.12000
C945        C  0.59329485  0.77884357  0.67638669     0.15900
C946        C  0.60831127  0.76924664  0.70147240    -0.33200
C947        C  0.62923559  0.78750642  0.71337208     0.20300
C948        C  0.63526012  0.81394782  0.70068787     0.02500
C949        C  0.62005713  0.82369051  0.67580659    -0.22900
C950        C  0.59886589  0.80562739  0.66416737     0.11600
S951        S  0.56676925  0.76016912  0.65879742    -0.06500
C952        C  0.56258587  0.78915443  0.63533817    -0.10000
C953        C  0.58122149  0.81169876  0.64073304    -0.26600
S954        S  0.66165696  0.83265674  0.71828604    -0.03800
C955        C  0.66453476  0.80470806  0.74338825    -0.17300
C956        C  0.64565925  0.78221753  0.73796924    -0.15300
H957        H  0.60375904  0.74853127  0.71141387     0.20100
H958        H  0.62438369  0.84454757  0.66609125     0.16200
H959        H  0.58161353  0.83165785  0.62832455     0.18700
H960        H  0.64353786  0.76299852  0.75131986     0.12000
C961        C  0.73994304  0.69549231  0.94084478     0.15900
C962        C  0.72619862  0.67922376  0.96294530    -0.33200
C963        C  0.74137195  0.65639400  0.97566228     0.20300
C964        C  0.76917956  0.65036572  0.96706215     0.02500
C965        C  0.78276969  0.66637867  0.94461588    -0.22900
C966        C  0.76739578  0.68892593  0.93154329     0.11600
S967        S  0.72489871  0.72359429  0.92243422    -0.06500
C968        C  0.75532257  0.72578491  0.90069027    -0.10000
C969        C  0.77636915  0.70616827  0.90846362    -0.26600
S970        S  0.78444544  0.62277163  0.98623581    -0.03800
C971        C  0.75292985  0.61905257  0.00583368    -0.17300
C972        C  0.73175148  0.63821784  0.99764515    -0.15300
H973        H  0.70460816  0.68411639  0.96986659     0.20100
H974        H  0.80432515  0.66139550  0.93757149     0.16200
H975        H  0.79671019  0.70375107  0.89728102     0.18700
H976        H  0.71081944  0.63935762  0.00782436     0.12000
C977        C  0.87756599  0.82804875  0.70857603     0.15900
C978        C  0.90067907  0.83769540  0.69125988    -0.33200
C979        C  0.91301473  0.81822764  0.67104464     0.20300
C980        C  0.90274870  0.79042074  0.66825704     0.02500
C981        C  0.87928363  0.78099634  0.68513099    -0.22900
C982        C  0.86693600  0.80046097  0.70530681     0.11600
S983        S  0.86105727  0.84757433  0.73583807    -0.06500
C984        C  0.83942924  0.81829107  0.74312021    -0.10000
C985        C  0.84473485  0.79494022  0.72457592    -0.26600
S986        S  0.92120948  0.76971998  0.64338340    -0.03800
C987        C  0.94281693  0.79887857  0.63623282    -0.17300
C988        C  0.93592613  0.82330840  0.65253178    -0.15300
H989        H  0.90900769  0.85923955  0.69383632     0.20100
H990        H  0.87129706  0.75926716  0.68297780     0.16200
H991        H  0.83374504  0.77452493  0.72602911     0.18700
H992        H  0.94713946  0.84358653  0.65103466     0.12000
C993        C  0.76627659  0.95191789  0.98431492     0.15900
C994        C  0.77663417  0.92941443  0.96631543    -0.33200
C995        C  0.75966272  0.92074004  0.94207335     0.20300
C996        C  0.73354851  0.93356780  0.93649211     0.02500
C997        C  0.72294550  0.95524219  0.95483963    -0.22900
C998        C  0.73992278  0.96417253  0.97854816     0.11600
S999        S  0.78425421  0.96800319  0.01310692    -0.06500
C1000       C  0.75584652  0.99136834  0.01674927    -0.10000
C1001       C  0.72708506  0.49387890  0.99143278    -0.26600
S1002       S  0.71673528  0.92175704  0.90537865    -0.03800
C1003       C  0.74490058  0.89874646  0.89946033    -0.17300
C1004       C  0.76626953  0.90048731  0.92085236    -0.15300
H1005       H  0.79728422  0.91984851  0.97035623     0.20100
H1006       H  0.70266493  0.96542967  0.95021718     0.16200
H1007       H  0.70797307  0.50691417  0.99060727     0.18700
H1008       H  0.78567620  0.88790996  0.92056371     0.12000
loop_ 
_geom_bond_atom_site_label_1 
_geom_bond_atom_site_label_2 
_geom_bond_distance 
_geom_bond_site_symmetry_2 
_ccdc_geom_bond_type 
C1            C2   1.620       .  S
C1            C7   1.618       .  S
C1            C5   1.553       .  S
C1          C247   1.516       .  S
C2            H9   1.084       .  S
C2            C3   1.386       .  D
C3            C4   1.492       .  S
C3           C39   1.625       .  S
C4            C8   1.493       .  S
C4            C6   1.644       .  S
C4           H10   1.091       .  S
C5           H11   1.085       .  S
C5            C6   1.366       .  D
C6           C30   1.615       .  S
C7           H12   1.085       .  S
C7            C8   1.379       .  D
C8           C20   1.623       .  S
C13          C14   1.614       .  S
C13          C19   1.621       .  S
C13          C17   1.555       .  S
C13         C228   1.519       .  S
C14          H21   1.085       .  S
C14          C15   1.377       .  D
C15          C16   1.492       .  S
C15          C27   1.618       .  S
C16          C20   1.489       .  S
C16          C18   1.642       .  S
C16          H22   1.091       .  S
C17          H23   1.085       .  S
C17          C18   1.368       .  D
C18          C42   1.614       .  S
C19          H24   1.084       .  S
C19          C20   1.386       .  D
C25          C26   1.620       .  S
C25          C31   1.615       .  S
C25          C29   1.556       .  S
C25         C212   1.516       .  S
C26          H33   1.083       .  S
C26          C27   1.381       .  D
C27          C28   1.489       .  S
C28          C32   1.489       .  S
C28          C30   1.641       .  S
C28          H34   1.092       .  S
C29          H35   1.085       .  S
C29          C30   1.369       .  D
C31          H36   1.084       .  S
C31          C32   1.377       .  D
C32          C44   1.618       .  S
C37          C38   1.617       .  S
C37          C43   1.618       .  S
C37          C41   1.553       .  S
C37         C199   1.515       .  S
C38          H45   1.085       .  S
C38          C39   1.383       .  D
C39          C40   1.492       .  S
C40          C44   1.490       .  S
C40          C42   1.645       .  S
C40          H46   1.092       .  S
C41          H47   1.085       .  S
C41          C42   1.367       .  D
C43          H48   1.084       .  S
C43          C44   1.379       .  D
C49          C50   1.621       .  S
C49          C55   1.613       .  S
C49          C53   1.554       .  S
C49         C180   1.515       .  S
C50          H57   1.084       .  S
C50          C51   1.385       .  D
C51          C52   1.489       .  S
C51          C63   1.622       .  S
C52          C56   1.490       .  S
C52          C54   1.642       .  S
C52          H58   1.091       .  S
C53          H59   1.085       .  S
C53          C54   1.367       .  D
C54          C78   1.613       .  S
C55          H60   1.085       .  S
C55          C56   1.376       .  D
C56          C92   1.615       .  S
C61          C62   1.617       .  S
C61          C67   1.622       .  S
C61          C65   1.556       .  S
C61         C164   1.523       .  S
C62          H69   1.084       .  S
C62          C63   1.379       .  D
C63          C64   1.492       .  S
C64          C68   1.490       .  S
C64          C66   1.642       .  S
C64          H70   1.091       .  S
C65          H71   1.085       .  S
C65          C66   1.370       .  D
C66          C90   1.616       .  S
C67          H72   1.083       .  S
C67          C68   1.384       .  D
C68          C80   1.624       .  S
C73          C74   1.622       .  S
C73          C79   1.617       .  S
C73          C77   1.552       .  S
C73         C148   1.520       .  S
C74          H81   1.084       .  S
C74          C75   1.384       .  D
C75          C76   1.492       .  S
C75          C87   1.624       .  S
C76          C80   1.491       .  S
C76          C78   1.644       .  S
C76          H82   1.090       .  S
C77          H83   1.085       .  S
C77          C78   1.366       .  D
C79          H84   1.085       .  S
C79          C80   1.382       .  D
C85          C86   1.619       .  S
C85          C91   1.617       .  S
C85          C89   1.555       .  S
C85         C135   1.515       .  S
C86          H93   1.084       .  S
C86          C87   1.383       .  D
C87          C88   1.490       .  S
C88          C92   1.490       .  S
C88          C90   1.643       .  S
C88          H94   1.091       .  S
C89          H95   1.085       .  S
C89          C90   1.367       .  D
C91          H96   1.084       .  S
C91          C92   1.377       .  D
O97         V105   1.905       .  S
O97         C107   1.265       .  A
O98         V105   1.910       .  S
O98         C108   1.267       .  A
O99         V105   1.900       .  S
O99         C109   1.264       .  A
O100        V105   1.904       .  S
O100        C110   1.265       .  A
O101        V106   1.896       .  S
O101        C110   1.264       .  A
O102        V106   1.897       .  S
O102        C109   1.263       .  A
O103        V106   1.891       .  S
O103        C108   1.262       .  A
O104        V106   1.896       .  S
O104        C107   1.263       .  A
V105        V106   2.088       .  T
C107        C496   1.471   1_545  S
C108        C132   1.471       .  S
C109        C419   1.465   1_545  S
C110        C215   1.471       .  S
O111        V623   1.904   1_455  S
O111        C121   1.265       .  A
O112        V119   1.909       .  S
O112        C122   1.266       .  A
O113        V623   1.903   1_455  S
O113        C123   1.265       .  A
O114        V119   1.902       .  S
O114        C124   1.264       .  A
O115        V120   1.905       .  S
O115        C124   1.265       .  A
O116        V624   1.905   1_455  S
O116        C123   1.265       .  A
O117        V120   1.906       .  S
O117        C122   1.266       .  A
O118        V624   1.903   1_455  S
O118        C121   1.265       .  A
V119        O615   1.902       .  S
V119        O617   1.904       .  S
V119        V120   2.086       .  T
V120        O620   1.904       .  S
V120        O622   1.912       .  S
C121        C151   1.475       .  S
C122        C231   1.481       .  S
C123        C196   1.474       .  S
C124        C183   1.473       .  S
C125        S131   1.704       .  A
C125        C130   1.387       .  A
C125        C126   1.402       .  A
C126        C127   1.402       .  A
C126        H137   1.084       .  S
C127        C136   1.373       .  A
C127        C128   1.386       .  A
C128        S134   1.702       .  A
C128        C129   1.402       .  A
C129        C130   1.402       .  A
C129        H138   1.084       .  S
C130        C133   1.373       .  A
S131        C132   1.724       .  A
C132        C133   1.386       .  A
C133        H139   1.083       .  S
S134        C135   1.728       .  A
C135        C136   1.389       .  A
C136        H140   1.083       .  S
C141        S147   1.709       .  A
C141        C146   1.385       .  A
C141        C142   1.405       .  A
C142        C143   1.405       .  A
C142        H153   1.082       .  S
C143        C152   1.374       .  A
C143        C144   1.387       .  A
C144        S150   1.709       .  A
C144        C145   1.403       .  A
C145        C146   1.404       .  A
C145        H154   1.082       .  S
C146        C149   1.373       .  A
S147        C148   1.729       .  A
C148        C149   1.392       .  A
C149        H155   1.080       .  S
S150        C151   1.723       .  A
C151        C152   1.388       .  A
C152        H156   1.083       .  S
C157        S163   1.709       .  A
C157        C162   1.384       .  A
C157        C158   1.406       .  A
C158        C159   1.406       .  A
C158        H169   1.082       .  S
C159        C168   1.376       .  A
C159        C160   1.386       .  A
C160        S166   1.709       .  A
C160        C161   1.404       .  A
C161        C162   1.405       .  A
C161        H170   1.082       .  S
C162        C165   1.375       .  A
S163        C164   1.730       .  A
C164        C165   1.393       .  A
C165        H171   1.080       .  S
S166        C167   1.725       .  A
C167        C361   1.478       .  S
C167        C168   1.389       .  A
C168        H172   1.083       .  S
C173        S179   1.705       .  A
C173        C178   1.386       .  A
C173        C174   1.403       .  A
C174        C175   1.403       .  A
C174        H185   1.083       .  S
C175        C184   1.373       .  A
C175        C176   1.387       .  A
C176        S182   1.708       .  A
C176        C177   1.403       .  A
C177        C178   1.404       .  A
C177        H186   1.083       .  S
C178        C181   1.373       .  A
S179        C180   1.728       .  A
C180        C181   1.391       .  A
C181        H187   1.081       .  S
S182        C183   1.723       .  A
C183        C184   1.387       .  A
C184        H188   1.083       .  S
C189        S195   1.708       .  A
C189        C194   1.387       .  A
C189        C190   1.401       .  A
C190        C191   1.402       .  A
C190        H201   1.083       .  S
C191        C200   1.369       .  A
C191        C192   1.385       .  A
C192        S198   1.711       .  A
C192        C193   1.405       .  A
C193        C194   1.406       .  A
C193        H202   1.083       .  S
C194        C197   1.374       .  A
S195        C196   1.722       .  A
C196        C197   1.389       .  A
C197        H203   1.083       .  S
S198        C199   1.728       .  A
C199        C200   1.390       .  A
C200        H204   1.081       .  S
C205        S211   1.705       .  A
C205        C210   1.385       .  A
C205        C206   1.401       .  A
C206        C207   1.402       .  A
C206        H217   1.083       .  S
C207        C216   1.369       .  A
C207        C208   1.387       .  A
C208        S214   1.710       .  A
C208        C209   1.402       .  A
C209        C210   1.404       .  A
C209        H218   1.084       .  S
C210        C213   1.371       .  A
S211        C212   1.727       .  A
C212        C213   1.392       .  A
C213        H219   1.081       .  S
S214        C215   1.723   1_556  A
C215        C216   1.386   1_554  A
C216        H220   1.083   1_556  S
C221        S227   1.713       .  A
C221        C226   1.385       .  A
C221        C222   1.406       .  A
C222        C223   1.406       .  A
C222        H233   1.083       .  S
C223        C232   1.376       .  A
C223        C224   1.386       .  A
C224        S230   1.711       .  A
C224        C225   1.404       .  A
C225        C226   1.405       .  A
C225        H234   1.083       .  S
C226        C229   1.373       .  A
S227        C228   1.728       .  A
C228        C229   1.391       .  A
C229        H235   1.083       .  S
S230        C231   1.725       .  A
C231        C232   1.390       .  A
C232        H236   1.083       .  S
C237        S243   1.705   1_556  A
C237        C242   1.387       .  A
C237        C238   1.400       .  A
C238        C239   1.401       .  A
C238        H249   1.083       .  S
C239        C248   1.369       .  A
C239        C240   1.385       .  A
C240        S246   1.712       .  A
C240        C241   1.405       .  A
C241        C242   1.406       .  A
C241        H250   1.083       .  S
C242        C497   1.374       .  A
S243        C244   1.721       .  A
C244        C359   1.472       .  S
C244        C497   1.389   1_554  A
C245        C494   1.369       .  A
C245        C496   1.386   1_556  A
C245        H251   1.083       .  S
S246        C247   1.729       .  A
C247        C248   1.388       .  A
C248        H252   1.082       .  S
C253        C254   1.618       .  S
C253        C259   1.615       .  S
C253        C257   1.554       .  S
C253        C499   1.512       .  S
C254        H261   1.084       .  S
C254        C255   1.383       .  D
C255        C256   1.491       .  S
C255        C291   1.620       .  S
C256        C260   1.491       .  S
C256        C258   1.643       .  S
C256        H262   1.093       .  S
C257        H263   1.085       .  S
C257        C258   1.367       .  D
C258        C282   1.615       .  S
C259        H264   1.085       .  S
C259        C260   1.378       .  D
C260        C272   1.620       .  S
C265        C266   1.616       .  S
C265        C271   1.619       .  S
C265        C269   1.551       .  S
C265        C480   1.516       .  S
C266        H273   1.085       .  S
C266        C267   1.382       .  D
C267        C268   1.491       .  S
C267        C279   1.621       .  S
C268        C272   1.490       .  S
C268        C270   1.642       .  S
C268        H274   1.092       .  S
C269        H275   1.085       .  S
C269        C270   1.366       .  D
C270        C294   1.611       .  S
C271        H276   1.084       .  S
C271        C272   1.382       .  D
C277        C278   1.620       .  S
C277        C283   1.614       .  S
C277        C281   1.554       .  S
C277        C464   1.514       .  S
C278        H285   1.084       .  S
C278        C279   1.381       .  D
C279        C280   1.491       .  S
C280        C284   1.492       .  S
C280        C282   1.644       .  S
C280        H286   1.093       .  S
C281        H287   1.085       .  S
C281        C282   1.368       .  D
C283        H288   1.085       .  S
C283        C284   1.380       .  D
C284        C296   1.621       .  S
C289        C290   1.614       .  S
C289        C295   1.620       .  S
C289        C293   1.549       .  S
C289        C451   1.510       .  S
C290        H297   1.085       .  S
C290        C291   1.380       .  D
C291        C292   1.492       .  S
C292        C296   1.490       .  S
C292        C294   1.646       .  S
C292        H298   1.092       .  S
C293        H299   1.085       .  S
C293        C294   1.365       .  D
C295        H300   1.085       .  S
C295        C296   1.383       .  D
C301        C302   1.621       .  S
C301        C307   1.613       .  S
C301        C305   1.552       .  S
C301        C432   1.512       .  S
C302        H309   1.084       .  S
C302        C303   1.384       .  D
C303        C304   1.490       .  S
C303        C315   1.622       .  S
C304        C308   1.491       .  S
C304        C306   1.645       .  S
C304        H310   1.093       .  S
C305        H311   1.085       .  S
C305        C306   1.366       .  D
C306        C330   1.613       .  S
C307        H312   1.085       .  S
C307        C308   1.376       .  D
C308        C344   1.616       .  S
C313        C314   1.615       .  S
C313        C319   1.620       .  S
C313        C317   1.549       .  S
C313        C416   1.509       .  S
C314        H321   1.085       .  S
C314        C315   1.380       .  D
C315        C316   1.493       .  S
C316        C320   1.493       .  S
C316        C318   1.647       .  S
C316        H322   1.093       .  S
C317        H323   1.085       .  S
C317        C318   1.363       .  D
C318        C342   1.611       .  S
C319        H324   1.084       .  S
C319        C320   1.383       .  D
C320        C332   1.623       .  S
C325        C326   1.619       .  S
C325        C331   1.617       .  S
C325        C329   1.551       .  S
C325        C400   1.514       .  S
C326        H333   1.083       .  S
C326        C327   1.380       .  D
C327        C328   1.490       .  S
C327        C339   1.618       .  S
C328        C332   1.490       .  S
C328        C330   1.645       .  S
C328        H334   1.093       .  S
C329        H335   1.085       .  S
C329        C330   1.365       .  D
C331        H336   1.084       .  S
C331        C332   1.382       .  D
C337        C338   1.619       .  S
C337        C343   1.611       .  S
C337        C341   1.551       .  S
C337        C387   1.508       .  S
C338        H345   1.085       .  S
C338        C339   1.378       .  D
C339        C340   1.490       .  S
C340        C344   1.490       .  S
C340        C342   1.644       .  S
C340        H346   1.094       .  S
C341        H347   1.085       .  S
C341        C342   1.368       .  D
C343        H348   1.085       .  S
C343        C344   1.379       .  D
O349        V357   1.899       .  S
O349        C359   1.265       .  A
O350        V357   1.909       .  S
O350        C360   1.264       .  A
O351        V357   1.911       .  S
O351        C361   1.267       .  A
O352        V357   1.905       .  S
O352        C362   1.265       .  A
O353        V358   1.902       .  S
O353        C362   1.264       .  A
O354        V358   1.901       .  S
O354        C361   1.264       .  A
O355        V358   1.891       .  S
O355        C360   1.263       .  A
O356        V358   1.903       .  S
O356        C359   1.265       .  A
V357        V358   2.086       .  T
C360        C384   1.463       .  S
C362        C467   1.473       .  S
O363        V875   1.901       .  S
O363        C373   1.265       .  A
O364        V371   1.906       .  S
O364        C374   1.266       .  A
O365        V875   1.903       .  S
O365        C375   1.264       .  A
O366        V371   1.892       .  S
O366        C376   1.262       .  A
O367        V372   1.912       .  S
O367        C376   1.267       .  A
O368        V876   1.898       .  S
O368        C375   1.264       .  A
O369        V372   1.905       .  S
O369        C374   1.265       .  A
O370        V876   1.901       .  S
O370        C373   1.264       .  A
V371        O867   1.901       .  S
V371        O869   1.894       .  S
V371        V372   2.087       .  T
V372        O872   1.911       .  S
V372        O874   1.909       .  S
C373        C403   1.470       .  S
C374        C483   1.478       .  S
C375        C448   1.469       .  S
C376        C435   1.471       .  S
C377        S383   1.696       .  A
C377        C382   1.388       .  A
C377        C378   1.392       .  A
C378        C379   1.394       .  A
C378        H389   1.083       .  S
C379        C388   1.361       .  A
C379        C380   1.385       .  A
C380        S386   1.714       .  A
C380        C381   1.409       .  A
C381        C382   1.409       .  A
C381        H390   1.082       .  S
C382        C385   1.378       .  A
S383        C384   1.714       .  A
C384        C385   1.390       .  A
C385        H391   1.082       .  S
S386        C387   1.730       .  A
C387        C388   1.384       .  A
C388        H392   1.082       .  S
C393        S399   1.706       .  A
C393        C398   1.385       .  A
C393        C394   1.401       .  A
C394        C395   1.403       .  A
C394        H405   1.083       .  S
C395        C404   1.370       .  A
C395        C396   1.387       .  A
C396        S402   1.708       .  A
C396        C397   1.401       .  A
C397        C398   1.403       .  A
C397        H406   1.083       .  S
C398        C401   1.369       .  A
S399        C400   1.726       .  A
C400        C401   1.391       .  A
C401        H407   1.080       .  S
S402        C403   1.723       .  A
C403        C404   1.386       .  A
C404        H408   1.083       .  S
C409        S415   1.705       .  A
C409        C414   1.386       .  A
C409        C410   1.402       .  A
C410        C411   1.403       .  A
C410        H421   1.083       .  S
C411        C420   1.371       .  A
C411        C412   1.387       .  A
C412        S418   1.704       .  A
C412        C413   1.399       .  A
C413        C414   1.400       .  A
C413        H422   1.083       .  S
C414        C417   1.368       .  A
S415        C416   1.727       .  A
C416        C417   1.388       .  A
C417        H423   1.081       .  S
S418        C419   1.720       .  A
C419        C420   1.386       .  A
C420        H424   1.084       .  S
C425        S431   1.705       .  A
C425        C430   1.386       .  A
C425        C426   1.404       .  A
C426        C427   1.404       .  A
C426        H437   1.083       .  S
C427        C436   1.375       .  A
C427        C428   1.387       .  A
C428        S434   1.704       .  A
C428        C429   1.401       .  A
C429        C430   1.401       .  A
C429        H438   1.084       .  S
C430        C433   1.371       .  A
S431        C432   1.728       .  A
C432        C433   1.389       .  A
C433        H439   1.082       .  S
S434        C435   1.722       .  A
C435        C436   1.387       .  A
C436        H440   1.083       .  S
C441        S447   1.703       .  A
C441        C446   1.387       .  A
C441        C442   1.398       .  A
C442        C443   1.399       .  A
C442        H453   1.083       .  S
C443        C452   1.368       .  A
C443        C444   1.386       .  A
C444        S450   1.708       .  A
C444        C445   1.404       .  A
C445        C446   1.405       .  A
C445        H454   1.082       .  S
C446        C449   1.374       .  A
S447        C448   1.719       .  A
C448        C449   1.388       .  A
C449        H455   1.082       .  S
S450        C451   1.728       .  A
C451        C452   1.387       .  A
C452        H456   1.082       .  S
C457        S463   1.709       .  A
C457        C462   1.385       .  A
C457        C458   1.403       .  A
C458        C459   1.405       .  A
C458        H469   1.082       .  S
C459        C468   1.372   1_556  A
C459        C460   1.387       .  A
C460        S466   1.708       .  A
C460        C461   1.401       .  A
C461        C462   1.403       .  A
C461        H470   1.083       .  S
C462        C465   1.369       .  A
S463        C464   1.727       .  A
C464        C465   1.390       .  A
C465        H471   1.082       .  S
S466        C467   1.722   1_556  A
C467        C468   1.388       .  A
C468        H472   1.082       .  S
C473        S479   1.706       .  A
C473        C478   1.386       .  A
C473        C474   1.401       .  A
C474        C475   1.402       .  A
C474        H485   1.083       .  S
C475        C484   1.372       .  A
C475        C476   1.387       .  A
C476        S482   1.712       .  A
C476        C477   1.406       .  A
C477        C478   1.406       .  A
C477        H486   1.083       .  S
C478        C481   1.374       .  A
S479        C480   1.726       .  A
C480        C481   1.391       .  A
C481        H487   1.083       .  S
S482        C483   1.727       .  A
C483        C484   1.387       .  A
C484        H488   1.083       .  S
C489        S495   1.710   1_556  A
C489        C494   1.387       .  A
C489        C490   1.402       .  A
C490        C491   1.403       .  A
C490        H501   1.082       .  S
C491        C500   1.369       .  A
C491        C492   1.386       .  A
C492        S498   1.708       .  A
C492        C493   1.402       .  A
C493        C494   1.403       .  A
C493        H502   1.082       .  S
S495        C496   1.722       .  A
C497        H503   1.083   1_556  S
S498        C499   1.727       .  A
C499        C500   1.389       .  A
C500        H504   1.083       .  S
C505        C506   1.620       .  S
C505        C511   1.613       .  S
C505        C509   1.557       .  S
C505        C751   1.512       .  S
C506        H513   1.084       .  S
C506        C507   1.385       .  D
C507        C508   1.490       .  S
C507        C543   1.623       .  S
C508        C512   1.493       .  S
C508        C510   1.644       .  S
C508        H514   1.092       .  S
C509        H515   1.085       .  S
C509        C510   1.369       .  D
C510        C534   1.618       .  S
C511        H516   1.085       .  S
C511        C512   1.376       .  D
C512        C524   1.617       .  S
C517        C518   1.617       .  S
C517        C523   1.616       .  S
C517        C521   1.553       .  S
C517        C732   1.513       .  S
C518        H525   1.085       .  S
C518        C519   1.381       .  D
C519        C520   1.491       .  S
C519        C531   1.623       .  S
C520        C524   1.490       .  S
C520        C522   1.644       .  S
C520        H526   1.091       .  S
C521        H527   1.085       .  S
C521        C522   1.365       .  D
C522        C546   1.613       .  S
C523        H528   1.084       .  S
C523        C524   1.382       .  D
C529        C530   1.621       .  S
C529        C535   1.614       .  S
C529        C533   1.557       .  S
C529        C716   1.518       .  S
C530        H537   1.084       .  S
C530        C531   1.384       .  D
C531        C532   1.491       .  S
C532        C536   1.491       .  S
C532        C534   1.643       .  S
C532        H538   1.092       .  S
C533        H539   1.085       .  S
C533        C534   1.371       .  D
C535        H540   1.085       .  S
C535        C536   1.376       .  D
C536        C548   1.619       .  S
C541        C542   1.616       .  S
C541        C547   1.618       .  S
C541        C545   1.554       .  S
C541        C703   1.515       .  S
C542        H549   1.085       .  S
C542        C543   1.380       .  D
C543        C544   1.492       .  S
C544        C548   1.490       .  S
C544        C546   1.643       .  S
C544        H550   1.091       .  S
C545        H551   1.085       .  S
C545        C546   1.367       .  D
C547        H552   1.084       .  S
C547        C548   1.382       .  D
C553        C554   1.619       .  S
C553        C559   1.620       .  S
C553        C557   1.558       .  S
C553        C684   1.522       .  S
C554        H561   1.085       .  S
C554        C555   1.383       .  D
C555        C556   1.490       .  S
C555        C567   1.624       .  S
C556        C560   1.490       .  S
C556        C558   1.642       .  S
C556        H562   1.090       .  S
C557        H563   1.085       .  S
C557        C558   1.371       .  D
C558        C582   1.618       .  S
C559        H564   1.084       .  S
C559        C560   1.377       .  D
C560        C596   1.617       .  S
C565        C566   1.620       .  S
C565        C571   1.616       .  S
C565        C569   1.556       .  S
C565        C668   1.518       .  S
C566        H573   1.084       .  S
C566        C567   1.384       .  D
C567        C568   1.492       .  S
C568        C572   1.490       .  S
C568        C570   1.642       .  S
C568        H574   1.091       .  S
C569        H575   1.085       .  S
C569        C570   1.368       .  D
C570        C594   1.615       .  S
C571        H576   1.085       .  S
C571        C572   1.380       .  D
C572        C584   1.620       .  S
C577        C578   1.617       .  S
C577        C583   1.619       .  S
C577        C581   1.557       .  S
C577        C652   1.520       .  S
C578        H585   1.085       .  S
C578        C579   1.383       .  D
C579        C580   1.492       .  S
C579        C591   1.624       .  S
C580        C584   1.490       .  S
C580        C582   1.643       .  S
C580        H586   1.091       .  S
C581        H587   1.085       .  S
C581        C582   1.369       .  D
C583        H588   1.084       .  S
C583        C584   1.380       .  D
C589        C590   1.621       .  S
C589        C595   1.613       .  S
C589        C593   1.556       .  S
C589        C639   1.517       .  S
C590        H597   1.085       .  S
C590        C591   1.384       .  D
C591        C592   1.491       .  S
C592        C596   1.489       .  S
C592        C594   1.643       .  S
C592        H598   1.089       .  S
C593        H599   1.085       .  S
C593        C594   1.369       .  D
C595        H600   1.085       .  S
C595        C596   1.379       .  D
O601        V609   1.911       .  S
O601        C611   1.265       .  A
O602        V609   1.913       .  S
O602        C612   1.268       .  A
O603        V609   1.894       .  S
O603        C613   1.264       .  A
O604        V609   1.898       .  S
O604        C614   1.264       .  A
O605        V610   1.910       .  S
O605        C614   1.267       .  A
O606        V610   1.906       .  S
O606        C613   1.265       .  A
O607        V610   1.893       .  S
O607        C612   1.262       .  A
O608        V610   1.885       .  S
O608        C611   1.263       .  A
V609        V610   2.082       .  T
C611       C1000   1.468   1_545  S
C612        C636   1.473       .  S
C613        C923   1.470   1_545  S
C614        C719   1.475       .  S
O615        C625   1.265       .  A
O616        V623   1.906       .  S
O616        C626   1.265       .  A
O617        C627   1.265       .  A
O618        V623   1.907       .  S
O618        C628   1.266       .  A
O619        V624   1.903       .  S
O619        C628   1.265       .  A
O620        C627   1.265       .  A
O621        V624   1.901       .  S
O621        C626   1.265       .  A
O622        C625   1.267       .  A
V623        V624   2.086       .  T
C625        C655   1.479       .  S
C626        C735   1.474       .  S
C627        C700   1.474       .  S
C628        C687   1.477       .  S
C629        S635   1.706       .  A
C629        C634   1.387       .  A
C629        C630   1.402       .  A
C630        C631   1.403       .  A
C630        H641   1.084       .  S
C631        C640   1.372       .  A
C631        C632   1.385       .  A
C632        S638   1.709       .  A
C632        C633   1.405       .  A
C633        C634   1.405       .  A
C633        H642   1.083       .  S
C634        C637   1.375       .  A
S635        C636   1.723       .  A
C636        C637   1.388       .  A
C637        H643   1.083       .  S
S638        C639   1.729       .  A
C639        C640   1.390       .  A
C640        H644   1.082       .  S
C645        S651   1.706       .  A
C645        C650   1.385       .  A
C645        C646   1.403       .  A
C646        C647   1.403       .  A
C646        H657   1.083       .  S
C647        C656   1.373       .  A
C647        C648   1.386       .  A
C648        S654   1.713       .  A
C648        C649   1.407       .  A
C649        C650   1.407       .  A
C649        H658   1.083       .  S
C650        C653   1.377       .  A
S651        C652   1.728       .  A
C652        C653   1.392       .  A
C653        H659   1.082       .  S
S654        C655   1.725       .  A
C655        C656   1.388       .  A
C656        H660   1.083       .  S
C661        S667   1.711       .  A
C661        C666   1.385       .  A
C661        C662   1.405       .  A
C662        C663   1.406       .  A
C662        H673   1.082       .  S
C663        C672   1.373       .  A
C663        C664   1.386       .  A
C664        S670   1.711       .  A
C664        C665   1.403       .  A
C665        C666   1.404       .  A
C665        H674   1.082       .  S
C666        C669   1.372       .  A
S667        C668   1.729       .  A
C668        C669   1.389       .  A
C669        H675   1.082       .  S
S670        C671   1.722       .  A
C671        C865   1.477       .  S
C671        C672   1.390       .  A
C672        H676   1.082       .  S
C677        S683   1.703       .  A
C677        C682   1.385       .  A
C677        C678   1.402       .  A
C678        C679   1.402       .  A
C678        H689   1.083       .  S
C679        C688   1.373       .  A
C679        C680   1.386       .  A
C680        S686   1.711       .  A
C680        C681   1.407       .  A
C681        C682   1.407       .  A
C681        H690   1.083       .  S
C682        C685   1.378       .  A
S683        C684   1.729       .  A
C684        C685   1.393       .  A
C685        H691   1.083       .  S
S686        C687   1.725       .  A
C687        C688   1.387       .  A
C688        H692   1.083       .  S
C693        S699   1.710       .  A
C693        C698   1.387       .  A
C693        C694   1.404       .  A
C694        C695   1.405       .  A
C694        H705   1.083       .  S
C695        C704   1.373       .  A
C695        C696   1.386       .  A
C696        S702   1.707       .  A
C696        C697   1.403       .  A
C697        C698   1.403       .  A
C697        H706   1.083       .  S
C698        C701   1.372       .  A
S699        C700   1.723       .  A
C700        C701   1.387       .  A
C701        H707   1.083       .  S
S702        C703   1.726       .  A
C703        C704   1.392       .  A
C704        H708   1.082       .  S
C709        S715   1.707       .  A
C709        C714   1.385       .  A
C709        C710   1.404       .  A
C710        C711   1.404       .  A
C710        H721   1.084       .  S
C711        C720   1.374       .  A
C711        C712   1.387       .  A
C712        S718   1.708       .  A
C712        C713   1.403       .  A
C713        C714   1.404       .  A
C713        H722   1.084       .  S
C714        C717   1.373       .  A
S715        C716   1.729       .  A
C716        C717   1.391       .  A
C717        H723   1.082       .  S
S718        C719   1.724   1_556  A
C719        C720   1.387   1_554  A
C720        H724   1.083   1_556  S
C725        S731   1.710       .  A
C725        C730   1.386       .  A
C725        C726   1.405       .  A
C726        C727   1.406       .  A
C726        H737   1.083       .  S
C727        C736   1.375       .  A
C727        C728   1.387       .  A
C728        S734   1.706       .  A
C728        C729   1.400       .  A
C729        C730   1.401       .  A
C729        H738   1.083       .  S
C730        C733   1.369       .  A
S731        C732   1.729       .  A
C732        C733   1.387       .  A
C733        H739   1.083       .  S
S734        C735   1.722       .  A
C735        C736   1.389       .  A
C736        H740   1.083       .  S
C741        S747   1.713   1_556  A
C741        C746   1.386       .  A
C741        C742   1.403       .  A
C742        C743   1.405       .  A
C742        H753   1.082       .  S
C743        C752   1.370       .  A
C743        C744   1.386       .  A
C744        S750   1.709       .  A
C744        C745   1.402       .  A
C745        C746   1.404       .  A
C745        H754   1.082       .  S
C746       C1001   1.369       .  A
S747        C748   1.723       .  A
C748        C863   1.474       .  S
C748       C1001   1.388   1_554  A
C749        C998   1.359       .  A
C749       C1000   1.380   1_556  A
C749        H755   1.084       .  S
S750        C751   1.726       .  A
C751        C752   1.389       .  A
C752        H756   1.083       .  S
C757        C758   1.621       .  S
C757        C763   1.613       .  S
C757        C761   1.548       .  S
C757       C1003   1.507       .  S
C758        H765   1.085       .  S
C758        C759   1.380       .  D
C759        C760   1.490       .  S
C759        C795   1.620       .  S
C760        C764   1.491       .  S
C760        C762   1.646       .  S
C760        H766   1.092       .  S
C761        H767   1.085       .  S
C761        C762   1.363       .  D
C762        C786   1.609       .  S
C763        H768   1.085       .  S
C763        C764   1.381       .  D
C764        C776   1.619       .  S
C769        C770   1.619       .  S
C769        C775   1.618       .  S
C769        C773   1.557       .  S
C769        C984   1.519       .  S
C770        H777   1.085       .  S
C770        C771   1.382       .  D
C771        C772   1.491       .  S
C771        C783   1.626       .  S
C772        C776   1.491       .  S
C772        C774   1.645       .  S
C772        H778   1.092       .  S
C773        H779   1.085       .  S
C773        C774   1.370       .  D
C774        C798   1.620       .  S
C775        H780   1.084       .  S
C775        C776   1.379       .  D
C781        C782   1.622       .  S
C781        C787   1.613       .  S
C781        C785   1.551       .  S
C781        C968   1.514       .  S
C782        H789   1.084       .  S
C782        C783   1.388       .  D
C783        C784   1.490       .  S
C784        C788   1.490       .  S
C784        C786   1.642       .  S
C784        H790   1.091       .  S
C785        H791   1.085       .  S
C785        C786   1.366       .  D
C787        H792   1.085       .  S
C787        C788   1.374       .  D
C788        C800   1.614       .  S
C793        C794   1.616       .  S
C793        C799   1.617       .  S
C793        C797   1.559       .  S
C793        C955   1.517       .  S
C794        H801   1.085       .  S
C794        C795   1.380       .  D
C795        C796   1.490       .  S
C796        C800   1.489       .  S
C796        C798   1.643       .  S
C796        H802   1.092       .  S
C797        H803   1.085       .  S
C797        C798   1.371       .  D
C799        H804   1.084       .  S
C799        C800   1.377       .  D
C805        C806   1.618       .  S
C805        C811   1.618       .  S
C805        C809   1.557       .  S
C805        C936   1.517       .  S
C806        H813   1.084       .  S
C806        C807   1.380       .  D
C807        C808   1.491       .  S
C807        C819   1.623       .  S
C808        C812   1.490       .  S
C808        C810   1.644       .  S
C808        H814   1.092       .  S
C809        H815   1.085       .  S
C809        C810   1.369       .  D
C810        C834   1.620       .  S
C811        H816   1.084       .  S
C811        C812   1.379       .  D
C812        C848   1.618       .  S
C817        C818   1.620       .  S
C817        C823   1.614       .  S
C817        C821   1.548       .  S
C817        C920   1.509       .  S
C818        H825   1.084       .  S
C818        C819   1.385       .  D
C819        C820   1.491       .  S
C820        C824   1.491       .  S
C820        C822   1.644       .  S
C820        H826   1.091       .  S
C821        H827   1.085       .  S
C821        C822   1.362       .  D
C822        C846   1.609       .  S
C823        H828   1.085       .  S
C823        C824   1.379       .  D
C824        C836   1.618       .  S
C829        C830   1.616       .  S
C829        C835   1.618       .  S
C829        C833   1.559       .  S
C829        C904   1.516       .  S
C830        H837   1.085       .  S
C830        C831   1.380       .  D
C831        C832   1.492       .  S
C831        C843   1.622       .  S
C832        C836   1.490       .  S
C832        C834   1.643       .  S
C832        H838   1.093       .  S
C833        H839   1.085       .  S
C833        C834   1.372       .  D
C835        H840   1.085       .  S
C835        C836   1.379       .  D
C841        C842   1.620       .  S
C841        C847   1.613       .  S
C841        C845   1.550       .  S
C841        C891   1.512       .  S
C842        H849   1.085       .  S
C842        C843   1.385       .  D
C843        C844   1.490       .  S
C844        C848   1.491       .  S
C844        C846   1.643       .  S
C844        H850   1.091       .  S
C845        H851   1.085       .  S
C845        C846   1.365       .  D
C847        H852   1.085       .  S
C847        C848   1.379       .  D
O853        V861   1.915       .  S
O853        C863   1.268       .  A
O854        V861   1.915       .  S
O854        C864   1.268       .  A
O855        V861   1.896       .  S
O855        C865   1.263       .  A
O856        V861   1.892       .  S
O856        C866   1.261       .  A
O857        V862   1.915       .  S
O857        C866   1.268       .  A
O858        V862   1.913       .  S
O858        C865   1.268       .  A
O859        V862   1.891       .  S
O859        C864   1.261       .  A
O860        V862   1.890       .  S
O860        C863   1.262       .  A
V861        V862   2.082       .  T
C864        C888   1.472       .  S
C866        C971   1.473       .  S
O867        C877   1.264       .  A
O868        V875   1.908   1_655  S
O868        C878   1.266       .  A
O869        C879   1.263       .  A
O870        V875   1.905   1_655  S
O870        C880   1.266       .  A
O871        V876   1.899   1_655  S
O871        C880   1.264       .  A
O872        C879   1.267       .  A
O873        V876   1.900   1_655  S
O873        C878   1.264       .  A
O874        C877   1.266       .  A
V875        V876   2.087       .  T
C877        C907   1.475       .  S
C878        C987   1.476       .  S
C879        C952   1.473       .  S
C880        C939   1.473       .  S
C881        S887   1.705       .  A
C881        C886   1.387       .  A
C881        C882   1.402       .  A
C882        C883   1.402       .  A
C882        H893   1.083       .  S
C883        C892   1.372       .  A
C883        C884   1.386       .  A
C884        S890   1.706       .  A
C884        C885   1.403       .  A
C885        C886   1.403       .  A
C885        H894   1.083       .  S
C886        C889   1.375       .  A
S887        C888   1.724       .  A
C888        C889   1.386       .  A
C889        H895   1.083       .  S
S890        C891   1.727       .  A
C891        C892   1.389       .  A
C892        H896   1.082       .  S
C897        S903   1.705       .  A
C897        C902   1.386       .  A
C897        C898   1.402       .  A
C898        C899   1.403       .  A
C898        H909   1.083       .  S
C899        C908   1.372       .  A
C899        C900   1.387       .  A
C900        S906   1.711       .  A
C900        C901   1.405       .  A
C901        C902   1.405       .  A
C901        H910   1.083       .  S
C902        C905   1.375       .  A
S903        C904   1.728       .  A
C904        C905   1.390       .  A
C905        H911   1.083       .  S
S906        C907   1.724       .  A
C907        C908   1.387       .  A
C908        H912   1.083       .  S
C913        S919   1.707       .  A
C913        C918   1.386       .  A
C913        C914   1.399       .  A
C914        C915   1.401       .  A
C914        H925   1.083       .  S
C915        C924   1.367       .  A
C915        C916   1.387       .  A
C916        S922   1.710       .  A
C916        C917   1.402       .  A
C917        C918   1.403       .  A
C917        H926   1.083       .  S
C918        C921   1.368       .  A
S919        C920   1.724       .  A
C920        C921   1.389       .  A
C921        H927   1.083       .  S
S922        C923   1.723       .  A
C923        C924   1.385       .  A
C924        H928   1.083   1_565  S
C929        S935   1.707       .  A
C929        C934   1.385       .  A
C929        C930   1.403       .  A
C930        C931   1.404       .  A
C930        H941   1.083       .  S
C931        C940   1.373       .  A
C931        C932   1.387       .  A
C932        S938   1.708       .  A
C932        C933   1.402       .  A
C933        C934   1.403       .  A
C933        H942   1.083       .  S
C934        C937   1.372       .  A
S935        C936   1.729       .  A
C936        C937   1.389       .  A
C937        H943   1.082       .  S
S938        C939   1.722       .  A
C939        C940   1.388       .  A
C940        H944   1.083       .  S
C945        S951   1.712       .  A
C945        C950   1.386       .  A
C945        C946   1.403       .  A
C946        C947   1.405       .  A
C946        H957   1.083       .  S
C947        C956   1.370       .  A
C947        C948   1.385       .  A
C948        S954   1.709       .  A
C948        C949   1.402       .  A
C949        C950   1.404       .  A
C949        H958   1.083       .  S
C950        C953   1.370       .  A
S951        C952   1.723       .  A
C952        C953   1.387       .  A
C953        H959   1.083       .  S
S954        C955   1.726       .  A
C955        C956   1.393       .  A
C956        H960   1.081       .  S
C961        S967   1.702       .  A
C961        C966   1.386       .  A
C961        C962   1.402       .  A
C962        C963   1.402       .  A
C962        H973   1.082       .  S
C963        C972   1.374       .  A
C963        C964   1.387       .  A
C964        S970   1.705       .  A
C964        C965   1.404       .  A
C965        C966   1.403       .  A
C965        H974   1.083       .  S
C966        C969   1.375       .  A
S967        C968   1.728       .  A
C968        C969   1.390       .  A
C969        H975   1.082       .  S
S970        C971   1.725   1_556  A
C971        C972   1.386   1_554  A
C972        H976   1.082   1_556  S
C977        S983   1.706       .  A
C977        C982   1.385       .  A
C977        C978   1.405       .  A
C978        C979   1.404       .  A
C978        H989   1.082       .  S
C979        C988   1.376       .  A
C979        C980   1.387       .  A
C980        S986   1.706       .  A
C980        C981   1.403       .  A
C981        C982   1.403       .  A
C981        H990   1.083       .  S
C982        C985   1.375       .  A
S983        C984   1.730       .  A
C984        C985   1.390       .  A
C985        H991   1.083       .  S
S986        C987   1.723       .  A
C987        C988   1.389       .  A
C988        H992   1.082       .  S
C993        S999   1.716   1_556  A
C993        C998   1.386       .  A
C993        C994   1.407       .  A
C994        C995   1.409       .  A
C994       H1005   1.082       .  S
C995       C1004   1.373       .  A
C995        C996   1.386       .  A
C996       S1002   1.696       .  A
C996        C997   1.392       .  A
C997        C998   1.394       .  A
C997       H1006   1.084       .  S
S999       C1000   1.727       .  A
C1001      H1007   1.083       .  S
S1002      C1003   1.720       .  A
C1003      C1004   1.392       .  A
C1004      H1008   1.082       .  S
