geometry optimzed in LAMMPS
_audit_creation_date              2020-11-30 
_audit_creation_method            'lammps2cif' 
_symmetry_space_group_name_H-M    'P1' 
_symmetry_Int_Tables_number       1 
_symmetry_cell_setting            triclinic 
loop_ 
_symmetry_equiv_pos_as_xyz 
  x,y,z 
_cell_length_a                    26.13585875 
_cell_length_b                    25.224156724216655 
_cell_length_c                    40.217634738652414 
_cell_angle_alpha                 90.19970510703574 
_cell_angle_beta                  89.92308541425236 
_cell_angle_gamma                 90.02945955722687 
loop_ 
_atom_site_label 
_atom_site_type_symbol 
_atom_site_fract_x 
_atom_site_fract_y 
_atom_site_fract_z 
_atom_site_charge 
O1          O  0.51537598  0.41862408  0.40121182    -0.80300
O2          O  0.51409193  0.41180664  0.59257378    -0.81900
O3          O  0.60243256  0.35868820  0.50133658    -0.78900
O4          O  0.43195914  0.35213138  0.49770193    -0.77300
O5          O  0.36879170  0.41476359  0.49693266    -0.79100
O6          O  0.66155724  0.42549819  0.50039797    -0.80000
O7          O  0.51700243  0.35126146  0.55004418    -0.81300
O8          O  0.52145933  0.35593326  0.44209720    -0.81600
Eu9        Eu  0.51580785  0.39785044  0.49715402     2.39200
O10         O  0.46277573  0.44832309  0.53238904    -0.89100
O11         O  0.56424188  0.45467609  0.46344215    -0.92700
C12         C  0.52008661  0.37004842  0.41126263     1.01900
C13         C  0.51624347  0.36362251  0.58114643     1.01800
C14         C  0.64891315  0.37628614  0.50226930     1.01700
C15         C  0.38441067  0.36636725  0.49722600     0.99600
H16         H  0.58618541  0.43108117  0.54594360     0.29300
O17         O  0.56407566  0.45275501  0.53245232    -1.01500
H18         H  0.44186085  0.42720233  0.44982808     0.29300
O19         O  0.46268030  0.45017407  0.46346515    -1.04100
O20         O  0.51091673  0.59159731  0.59585580    -0.81300
O21         O  0.51011935  0.59784941  0.40399074    -0.80800
O22         O  0.65593618  0.50590417  0.55344471    -0.79300
O23         O  0.36727758  0.49311881  0.55190889    -0.82600
O24         O  0.36679720  0.49881815  0.44583841    -0.80500
O25         O  0.65531211  0.50150857  0.44424909    -0.79100
O26         O  0.59093813  0.65760813  0.50026408    -0.80600
O27         O  0.42327556  0.65254975  0.50401205    -0.82600
O28         O  0.65428786  0.59527250  0.49747240    -0.79300
O29         O  0.36461893  0.58539362  0.50145897    -0.82000
O30         O  0.59655722  0.50393930  0.59544642    -0.77700
O31         O  0.59651730  0.50476098  0.40209491    -0.77700
O32         O  0.42418268  0.50165584  0.40294748    -0.77400
O33         O  0.42472063  0.49730015  0.59468993    -0.80900
O34         O  0.51152300  0.65348506  0.55439000    -0.80300
O35         O  0.50804967  0.65822922  0.44657896    -0.78600
Eu36       Eu  0.51124167  0.50287077  0.56834924     2.39800
Eu37       Eu  0.51095572  0.50703474  0.42896739     2.39600
Eu38       Eu  0.61375870  0.50830791  0.49872137     2.38400
Eu39       Eu  0.41063472  0.50119997  0.49874418     2.39900
Eu40       Eu  0.50839935  0.61127604  0.49986080     2.39800
O41         O  0.45799844  0.55827430  0.46443330    -0.93100
O42         O  0.56113149  0.55895613  0.53392100    -0.91900
C43         C  0.51199762  0.64011374  0.58528355     1.02100
C44         C  0.50940218  0.64613195  0.41536484     1.00800
C45         C  0.64314271  0.50369775  0.58446611     1.00200
C46         C  0.37863191  0.49304379  0.58302115     1.02200
C47         C  0.37804567  0.49811359  0.41470994     1.01200
C48         C  0.64282391  0.50078767  0.41321747     1.00000
C49         C  0.63831659  0.64350366  0.49870299     1.00100
C50         C  0.37696138  0.63467906  0.50403198     1.02700
H51         H  0.58250972  0.58364626  0.45116274     0.30100
O52         O  0.56132316  0.56072044  0.46455696    -1.05200
H53         H  0.43650638  0.57660664  0.54814442     0.32100
O54         O  0.45883982  0.55575544  0.53414268    -1.07800
N55         N  0.01532413  0.08346396  0.51777246    -0.36800
N56         N  0.08956743  0.99819651  0.51848427    -0.57400
N57         N  0.00696136  0.92268200  0.51902526    -0.36800
N58         N  0.93269647  0.00795381  0.52201851    -0.57400
C59         C  0.05947120  0.10962427  0.52380159     0.26800
C60         C  0.97655757  0.11456014  0.52869251     0.26800
C61         C  0.04641525  0.89160801  0.52836195     0.26800
C62         C  0.96358187  0.89671920  0.52688562     0.26800
C63         C  0.11917424  0.03832365  0.50742523     0.35400
C64         C  0.11505490  0.95291660  0.51155748     0.35400
C65         C  0.90656771  0.05276149  0.51523140     0.35400
C66         C  0.90267968  0.96736017  0.51211406     0.35400
C67         C  0.04881598  0.15769650  0.53915230    -0.22100
C68         C  0.99638286  0.16071554  0.54237185    -0.22100
C69         C  0.02788035  0.84557353  0.54281442    -0.22100
C70         C  0.97533571  0.84870836  0.54173052    -0.22100
C71         C  0.16347376  0.01835885  0.49305207    -0.23200
C72         C  0.16106390  0.96414725  0.49597669    -0.23100
C73         C  0.85976789  0.04067106  0.50092543    -0.23200
C74         C  0.85743701  0.98642504  0.49873453    -0.23100
C75         C  0.10840788  0.09250278  0.51322974    -0.18500
C76         C  0.92402570  0.10412422  0.52330507    -0.18500
C77         C  0.91423527  0.91355854  0.51781319    -0.18500
C78         C  0.09814160  0.90198788  0.52095212    -0.18500
H79         H  0.07593164  0.18776858  0.54681989     0.14400
H80         H  0.97524723  0.19368317  0.55283524     0.14400
H81         H  0.04984952  0.81258806  0.55231787     0.14400
H82         H  0.94883264  0.81870806  0.55029171     0.14400
H83         H  0.19463781  0.04046606  0.48204788     0.12700
H84         H  0.18976183  0.93622798  0.48755155     0.12700
H85         H  0.83058360  0.06800219  0.49264001     0.12700
H86         H  0.82587137  0.96372703  0.48867514     0.12700
H87         H  0.01176351  0.04969354  0.50298669     0.26000
H88         H  0.00914293  0.95611824  0.50398592     0.26000
O89         O  0.97808860  0.89928206  0.90410481    -0.80300
O90         O  0.98053970  0.90453440  0.09509555    -0.81900
O91         O  0.05956943  0.83653362  0.99658331    -0.78900
O92         O  0.89231566  0.84689122  0.99767592    -0.77300
O93         O  0.83441926  0.91474368  0.99953546    -0.79100
O94         O  0.12305816  0.89885992  0.99766368    -0.80000
O95         O  0.97499806  0.84199527  0.05388793    -0.81300
O96         O  0.97520233  0.83937992  0.94667954    -0.81600
Eu97       Eu  0.97842078  0.88561243  0.99963864     2.39200
O98         O  0.92982656  0.94163280  0.03416321    -0.89100
O99         O  0.03091546  0.93550177  0.96402010    -0.92700
C100        C  0.97565429  0.85129489  0.91559222     1.01900
C101        C  0.97667707  0.85581563  0.08478541     1.01800
C102        C  0.10704701  0.85054470  0.99653807     1.01700
C103        C  0.84630356  0.86535457  0.99801321     0.99600
H104        H  0.05422640  0.91382385  0.04682995     0.29300
O105        O  0.03318600  0.93674860  0.03332642    -1.01500
H106        H  0.90680400  0.91902402  0.95137536     0.29300
O107        O  0.92984255  0.94035711  0.96458496    -1.04100
O108        O  0.98659122  0.08445753  0.09279300    -0.81300
O109        O  0.98289556  0.07838996  0.90080292    -0.80800
O110        O  0.12570840  0.99064852  0.05145686    -0.79300
O111        O  0.84059005  0.00185011  0.05269712    -0.82600
O112        O  0.83954985  0.99857860  0.94524327    -0.80500
O113        O  0.12761157  0.98083588  0.94335867    -0.79100
O114        O  0.07460979  0.13785960  0.99613450    -0.80600
O115        O  0.90546529  0.14630308  0.99666583    -0.82600
O116        O  0.13311377  0.07052162  0.99874894    -0.79300
O117        O  0.84202481  0.08408125  0.00001794    -0.82000
O118        O  0.06983272  0.99563898  0.09497922    -0.77700
O119        O  0.06795718  0.98606761  0.90176845    -0.77700
O120        O  0.89638187  0.99461875  0.90202382    -0.77400
O121        O  0.89902574  0.99977980  0.09494862    -0.80900
O122        O  0.98914979  0.14421576  0.05009216    -0.80300
O123        O  0.98438285  0.14127500  0.94198180    -0.78600
Eu124      Eu  0.98438549  0.99372536  0.06796254     2.39800
Eu125      Eu  0.98233774  0.99028416  0.92850318     2.39600
Eu126      Eu  0.08475264  0.98721187  0.99735235     2.38400
Eu127      Eu  0.88251176  0.99712300  0.99892260     2.39900
Eu128      Eu  0.98806871  0.09883675  0.99649430     2.39800
O129        O  0.93402325  0.04709725  0.96314832    -0.93100
O130        O  0.03636035  0.04358944  0.03132957    -0.91900
C131        C  0.98783706  0.13243262  0.08124884     1.02100
C132        C  0.98260735  0.12712127  0.91115329     1.00800
C133        C  0.11563603  0.99445247  0.08271671     1.00200
C134        C  0.85276559  0.00317214  0.08368718     1.02200
C135        C  0.85038535  0.99690324  0.91398897     1.01200
C136        C  0.11449807  0.98189905  0.91246473     1.00000
C137        C  0.12085970  0.11998486  0.99775527     1.00100
C138        C  0.85803353  0.13229171  0.99885318     1.02700
H139        H  0.05947435  0.06347720  0.94839083     0.30100
O140        O  0.03692699  0.04260381  0.96219446    -1.05200
H141        H  0.91535070  0.07250739  0.04561967     0.32100
O142        O  0.93606912  0.04881364  0.03233290    -1.07800
N143        N  0.47981334  0.57382225  0.98953786    -0.36800
N144        N  0.56182539  0.49914662  0.00211035    -0.57400
N145        N  0.48851165  0.41387836  0.00544885    -0.36800
N146        N  0.40639351  0.48884811  0.98926736    -0.57400
C147        C  0.52115175  0.60374518  0.98232309     0.26800
C148        C  0.43879624  0.59802660  0.97591114     0.26800
C149        C  0.53265238  0.38642877  0.00167259     0.26800
C150        C  0.44983030  0.38109374  0.99669818     0.26800
C151        C  0.58767579  0.54498364  0.00628851     0.35400
C152        C  0.59272667  0.46012860  0.01314535     0.35400
C153        C  0.37428835  0.53083588  0.99093933     0.35400
C154        C  0.37926882  0.44640549  0.99960821     0.35400
C155        C  0.50638020  0.64735306  0.96372779    -0.22100
C156        C  0.45427163  0.64368461  0.95963963    -0.22100
C157        C  0.52176183  0.33559080  0.99043878    -0.22100
C158        C  0.46941917  0.33218960  0.98740383    -0.22100
C159        C  0.63510167  0.53514870  0.02044220    -0.23200
C160        C  0.63836325  0.48122833  0.02468116    -0.23100
C161        C  0.32669593  0.51495451  0.00243907    -0.23200
C162        C  0.32980298  0.46138984  0.00777361    -0.23100
C163        C  0.57112467  0.59452311  0.99411465    -0.18500
C164        C  0.38743557  0.58285004  0.98118779    -0.18500
C165        C  0.39727409  0.39364671  0.99874495    -0.18500
C166        C  0.58217082  0.40558667  0.00936979    -0.18500
H167        H  0.53049951  0.67898745  0.95453371     0.14400
H168        H  0.43030661  0.67201664  0.94684824     0.14400
H169        H  0.54865520  0.30410743  0.98502382     0.14400
H170        H  0.44821969  0.29763612  0.97928895     0.14400
H171        H  0.66481660  0.56363488  0.02619113     0.12700
H172        H  0.67099471  0.45988632  0.03436577     0.12700
H173        H  0.29323620  0.53922548  0.00679779     0.12700
H174        H  0.29911666  0.43628636  0.01662793     0.12700
H175        H  0.47875653  0.54288355  0.00656298     0.26000
H176        H  0.48436225  0.45093794  0.01659805     0.26000
C177        C  0.05664115  0.49057630  0.27734176     0.86300
C178        C  0.05339518  0.44578577  0.25183275    -0.54000
C179        C  0.01013494  0.44611132  0.23292047     0.09200
C180        C  0.97371647  0.49276261  0.24069698     0.20200
C181        C  0.05015399  0.54173389  0.25720820    -0.54700
C182        C  0.00698024  0.54359117  0.23791827     0.09300
C183        C  0.00633674  0.48672823  0.29724596    -0.54200
C184        C  0.96288521  0.48693359  0.27829517     0.09900
H185        H  0.08211200  0.41477353  0.24988480     0.14400
H186        H  0.93860768  0.49289341  0.22520329     0.00100
H187        H  0.07791714  0.57371378  0.25804758     0.14700
H188        H  0.00436505  0.48594793  0.32413110     0.14500
C189        C  0.43932991  0.00509669  0.21905015     0.86300
C190        C  0.44496199  0.95679224  0.24161936    -0.54000
C191        C  0.48807869  0.95696730  0.26085528     0.09200
C192        C  0.52205308  0.00696532  0.25603345     0.20200
C193        C  0.44304381  0.05322089  0.24234650    -0.54700
C194        C  0.48644257  0.05516258  0.26139165     0.09300
C195        C  0.49000287  0.00583376  0.19943748    -0.54200
C196        C  0.53319750  0.00860514  0.21840889     0.09900
H197        H  0.41732489  0.92461306  0.24203243     0.14400
H198        H  0.55700609  0.00770101  0.27164196     0.00100
H199        H  0.41418481  0.08417233  0.24277712     0.14700
H200        H  0.49317098  0.00308013  0.17279609     0.14500
C201        C  0.05520882  0.49505377  0.71940435     0.86300
C202        C  0.04713117  0.54330609  0.74207000    -0.54000
C203        C  0.00505718  0.54042290  0.76207932     0.09200
C204        C  0.97372306  0.48893074  0.75734481     0.20200
C205        C  0.05488258  0.44720494  0.74268142    -0.54700
C206        C  0.01215073  0.44287967  0.76220537     0.09300
C207        C  0.00446672  0.49089039  0.70008765    -0.54200
C208        C  0.96178767  0.48732130  0.71977159     0.09900
H209        H  0.07182621  0.57790194  0.74189510     0.14400
H210        H  0.93901163  0.48647526  0.77320631     0.00100
H211        H  0.08569666  0.41834115  0.74292422     0.14700
H212        H  0.00201372  0.49185280  0.67316437     0.14500
C213        C  0.43359988  0.00541049  0.77418017     0.86300
C214        C  0.44018502  0.05155216  0.74978461    -0.54000
C215        C  0.48550723  0.05161690  0.73282435     0.09200
C216        C  0.52044820  0.00400941  0.74134464     0.20200
C217        C  0.44177269  0.95558935  0.75322075    -0.54700
C218        C  0.48685803  0.95409325  0.73619128     0.09300
C219        C  0.48126769  0.00913809  0.79631969    -0.54200
C220        C  0.52712241  0.00730112  0.77957200     0.09900
H221        H  0.41301978  0.08347064  0.74674502     0.14400
H222        H  0.55697930  0.00300673  0.72726178     0.00100
H223        H  0.41386226  0.92368030  0.75210186     0.14700
H224        H  0.47841274  0.01251348  0.82316390     0.14500
C225        C  0.24778814  0.00000341  0.21255316    -0.18000
C226        C  0.20228794  0.99881908  0.19394815    -0.20200
C227        C  0.20374315  0.00012122  0.15900778     0.20400
C228        C  0.25172832  0.00353274  0.14291670    -0.03100
C229        C  0.29739968  0.00484425  0.16162721    -0.06200
C230        C  0.29565234  0.00259316  0.19660078     0.20700
C231        C  0.34487496  0.00829797  0.14517393     0.18900
C232        C  0.34667527  0.01078324  0.11037262    -0.17700
C233        C  0.30173299  0.00920083  0.09192100    -0.19900
C234        C  0.25430950  0.00534262  0.10798937     0.20400
C235        C  0.20959732  0.00293658  0.08940103    -0.32900
C236        C  0.16128286  0.99834645  0.10471520     0.01100
C237        C  0.15849704  0.99761251  0.13976736    -0.24200
C238        C  0.34177739  0.00261031  0.21481130    -0.28800
C239        C  0.38975126  0.00515718  0.19852118     0.06700
C240        C  0.39011173  0.00912498  0.16350770    -0.27500
H241        H  0.24553545  0.99851252  0.23943277     0.11500
H242        H  0.16599135  0.99643273  0.20689629     0.12600
H243        H  0.38292374  0.01356938  0.09737597     0.11700
H244        H  0.30408969  0.01079468  0.06503319     0.10900
H245        H  0.21295275  0.00449926  0.06255349     0.16300
H246        H  0.12160823  0.99451695  0.15194064     0.12200
H247        H  0.34051913  0.00051192  0.24171383     0.15100
H248        H  0.42487150  0.01346370  0.14953591     0.14800
C249        C  0.67726253  0.06440919  0.10245892    -0.18000
C250        C  0.63311431  0.06709891  0.12186019    -0.20200
C251        C  0.63238167  0.04478906  0.15374728     0.20400
C252        C  0.67684223  0.02115717  0.16676429    -0.03100
C253        C  0.72188437  0.01952047  0.14741523    -0.06200
C254        C  0.72157102  0.04040219  0.11495553     0.20700
C255        C  0.76661838  0.99558768  0.16009578     0.18900
C256        C  0.76590126  0.97454570  0.19238725    -0.17700
C257        C  0.72086542  0.97542507  0.21141408    -0.19900
C258        C  0.67582859  0.99783088  0.19863772     0.20400
C259        C  0.62934916  0.99543046  0.21643026    -0.32900
C260        C  0.58434457  0.01667981  0.20270084     0.01100
C261        C  0.58723111  0.04392053  0.17220950    -0.24200
C262        C  0.76509236  0.03574847  0.09511061    -0.28800
C263        C  0.80951506  0.01070287  0.10699861     0.06700
C264        C  0.81058186  0.99181794  0.13987093    -0.27500
H265        H  0.67650495  0.08033507  0.07748008     0.11500
H266        H  0.59909919  0.08525758  0.11155241     0.12600
H267        H  0.79985034  0.95622772  0.20263876     0.11700
H268        H  0.72101977  0.95765727  0.23589655     0.10900
H269        H  0.62782734  0.97500736  0.24005636     0.16300
H270        H  0.55367317  0.06319642  0.16208652     0.12200
H271        H  0.76404156  0.05114405  0.06998858     0.15100
H272        H  0.84468637  0.97250857  0.14918346     0.14800
C273        C  0.94421525  0.62383530  0.13264671    -0.18000
C274        C  0.94056861  0.66751072  0.11131202    -0.20200
C275        C  0.95791626  0.71778483  0.12144377     0.20400
C276        C  0.97817693  0.72433683  0.15363314    -0.03100
C277        C  0.98199600  0.68013570  0.17516534    -0.06200
C278        C  0.96535792  0.62949949  0.16454229     0.20700
C279        C  0.00341314  0.68646934  0.20705405     0.18900
C280        C  0.01983562  0.73691431  0.21743152    -0.17700
C281        C  0.01596655  0.78061280  0.19617424    -0.19900
C282        C  0.99558175  0.77478681  0.16409384     0.20400
C283        C  0.99335391  0.81818566  0.14210547    -0.32900
C284        C  0.97465587  0.81169230  0.10951402     0.01100
C285        C  0.95632254  0.76128323  0.09969681    -0.24200
C286        C  0.97148500  0.58529851  0.18559318    -0.28800
C287        C  0.99466113  0.59096010  0.21699572     0.06700
C288        C  0.00920698  0.64213027  0.22774571    -0.27500
H289        H  0.93114993  0.58542442  0.12399545     0.11500
H290        H  0.92472604  0.66179941  0.08667467     0.12600
H291        H  0.03632844  0.74247345  0.24189961     0.11700
H292        H  0.02950663  0.81890491  0.20471526     0.10900
H293        H  0.00772571  0.85651935  0.15000649     0.16300
H294        H  0.94131440  0.75559230  0.07482343     0.12200
H295        H  0.96020994  0.54629049  0.17694349     0.15100
H296        H  0.02580626  0.64750057  0.25219701     0.14800
C297        C  0.97745834  0.36984442  0.12152037    -0.18000
C298        C  0.97604948  0.32567189  0.10040069    -0.20200
C299        C  0.98122684  0.27424692  0.11325681     0.20400
C300        C  0.98702597  0.26702549  0.14773173    -0.03100
C301        C  0.98858746  0.31163447  0.16905708    -0.06200
C302        C  0.98417382  0.36337409  0.15586236     0.20700
C303        C  0.99575226  0.30448959  0.20346542     0.18900
C304        C  0.99988007  0.25302826  0.21638393    -0.17700
C305        C  0.99799799  0.20884348  0.19526763    -0.19900
C306        C  0.99211782  0.21534943  0.16084444     0.20400
C307        C  0.99188762  0.17123540  0.13929639    -0.32900
C308        C  0.98700661  0.17819891  0.10473800     0.01100
C309        C  0.98125062  0.23003771  0.09211672    -0.24200
C310        C  0.98818988  0.40763005  0.17710272    -0.28800
C311        C  0.99766289  0.40053310  0.21110907     0.06500
C312        C  0.00024716  0.34895740  0.22421121    -0.27500
H313        H  0.97400377  0.40911603  0.11092777     0.11500
H314        H  0.97139653  0.33177428  0.07391968     0.12600
H315        H  0.00525530  0.24696990  0.24280878     0.11700
H316        H  0.00180481  0.16958869  0.20582996     0.10900
H317        H  0.99617796  0.13170082  0.14938849     0.16300
H318        H  0.97687841  0.23631221  0.06562537     0.12200
H319        H  0.98648326  0.44739643  0.16702868     0.15100
H320        H  0.00717654  0.34359677  0.25057001     0.14800
C321        C  0.31996868  0.75363227  0.02097290    -0.18000
C322        C  0.28008499  0.79003853  0.02414608    -0.20200
C323        C  0.23345908  0.78127464  0.00784105     0.20400
C324        C  0.22698322  0.73580901  0.98773902    -0.03100
C325        C  0.26759572  0.69943447  0.98411567    -0.06200
C326        C  0.31393900  0.70814041  0.00124928     0.20700
C327        C  0.26160005  0.65405260  0.96384738     0.18900
C328        C  0.21502669  0.64573521  0.94722604    -0.17700
C329        C  0.17447288  0.68159044  0.95110256    -0.19900
C330        C  0.17996644  0.72664060  0.97142149     0.20400
C331        C  0.13969234  0.76308778  0.97544011    -0.32900
C332        C  0.14662007  0.80902951  0.99487580     0.01100
C333        C  0.19342136  0.81756922  0.01110307    -0.24200
C334        C  0.35300464  0.67050445  0.99920375    -0.28800
C335        C  0.34704703  0.62450357  0.97982918     0.06700
C336        C  0.30182016  0.61724553  0.96134784    -0.27500
H337        H  0.35543800  0.76086179  0.03415510     0.11500
H338        H  0.28557746  0.82489132  0.03956532     0.12600
H339        H  0.20972778  0.61112477  0.93157104     0.11700
H340        H  0.13879855  0.67406743  0.93821859     0.10900
H341        H  0.10375975  0.75676475  0.96256919     0.16300
H342        H  0.19875406  0.85285092  0.02620829     0.12200
H343        H  0.38768410  0.67613193  0.01357129     0.15100
H344        H  0.29734947  0.58200141  0.94611948     0.14800
C345        C  0.67471398  0.80653706  0.03197773    -0.18000
C346        C  0.63581137  0.76850145  0.03139668    -0.20200
C347        C  0.64017997  0.72351827  0.01097486     0.20400
C348        C  0.68328010  0.71763347  0.99006105    -0.03100
C349        C  0.72272413  0.75557969  0.99095140    -0.06200
C350        C  0.71866530  0.79986751  0.01234267     0.20700
C351        C  0.76685709  0.74837793  0.97114497     0.18900
C352        C  0.76994930  0.70497831  0.94935511    -0.17700
C353        C  0.73055854  0.66759919  0.94821661    -0.19900
C354        C  0.68776752  0.67295021  0.96901990     0.20400
C355        C  0.65017453  0.63358562  0.96992533    -0.32900
C356        C  0.60867617  0.63810074  0.99184300     0.01100
C357        C  0.60303345  0.68353273  0.01173356    -0.24200
C358        C  0.75913291  0.83604678  0.01421762    -0.28800
C359        C  0.80395279  0.82758869  0.99569034     0.06700
C360        C  0.80750550  0.78415963  0.97395982    -0.27500
H361        H  0.67095956  0.84054604  0.04833789     0.11500
H362        H  0.60275370  0.77377683  0.04735472     0.12600
H363        H  0.80329696  0.69937278  0.93369402     0.11700
H364        H  0.73420239  0.63374435  0.93172668     0.10900
H365        H  0.65367391  0.59866631  0.95428003     0.16300
H366        H  0.57038100  0.68693882  0.02827025     0.12200
H367        H  0.75641734  0.87002159  0.03073308     0.15100
H368        H  0.84174866  0.77856604  0.95908180     0.14800
C369        C  0.70330062  0.20535194  0.05173826    -0.18000
C370        C  0.66525282  0.24421849  0.05387724    -0.20200
C371        C  0.66500959  0.28707076  0.03170914     0.20400
C372        C  0.70399351  0.29120009  0.00747258    -0.03100
C373        C  0.74258379  0.25219803  0.00547763    -0.06200
C374        C  0.74182308  0.20878716  0.02748692     0.20700
C375        C  0.78174513  0.25652344  0.98135473     0.18900
C376        C  0.78167450  0.29950219  0.95932082    -0.17700
C377        C  0.74309136  0.33781354  0.96104267    -0.19900
C378        C  0.70413328  0.33397694  0.98496201     0.20400
C379        C  0.66487552  0.37171111  0.98639824    -0.32900
C380        C  0.62554293  0.36741703  0.01007807     0.01100
C381        C  0.62610818  0.32541075  0.03295231    -0.24200
C382        C  0.77960746  0.16961907  0.02482946    -0.28800
C383        C  0.81890194  0.17402177  0.00110446     0.06700
C384        C  0.82013120  0.21771086  0.97963241    -0.27500
H385        H  0.70260945  0.17260973  0.06906650     0.11500
H386        H  0.63575629  0.24050653  0.07268626     0.12600
H387        H  0.81134624  0.30335686  0.94063660     0.11700
H388        H  0.74366546  0.37044385  0.94359766     0.10900
H389        H  0.66415684  0.40395551  0.96864305     0.16300
H390        H  0.59566454  0.32215966  0.05117591     0.12200
H391        H  0.77903263  0.13606121  0.04158152     0.15100
H392        H  0.85032000  0.22082170  0.96121043     0.14800
C393        C  0.31924848  0.23109475  0.04630099    -0.18000
C394        C  0.28057124  0.19256727  0.04603203    -0.20200
C395        C  0.24178427  0.19390952  0.02188900     0.20400
C396        C  0.24217327  0.23434748  0.99769813    -0.03100
C397        C  0.28170348  0.27248650  0.99756130    -0.06200
C398        C  0.32021233  0.27118353  0.02215449     0.20700
C399        C  0.28242432  0.31212765  0.97288711     0.18900
C400        C  0.24372465  0.31364882  0.94881222    -0.17700
C401        C  0.20409421  0.27652485  0.94932333    -0.19900
C402        C  0.20291013  0.23687200  0.97365724     0.20400
C403        C  0.16308144  0.19974537  0.97432536    -0.32900
C404        C  0.16277922  0.15903523  0.99796565     0.01100
C405        C  0.20246246  0.15581907  0.02149488    -0.24200
C406        C  0.35853325  0.31032675  0.02226591    -0.28800
C407        C  0.35891692  0.35013072  0.99784570     0.06700
C408        C  0.32139137  0.35008247  0.97292626    -0.27500
H409        H  0.34848521  0.22945041  0.06534784     0.11500
H410        H  0.28080672  0.16190692  0.06484126     0.12600
H411        H  0.24381087  0.34393577  0.92977072     0.11700
H412        H  0.17435153  0.27879656  0.93064185     0.10900
H413        H  0.13268454  0.20182903  0.95604145     0.16300
H414        H  0.20202234  0.12440816  0.03984284     0.12200
H415        H  0.38759332  0.31041233  0.04148196     0.15100
H416        H  0.32201987  0.38057816  0.95398215     0.14800
C417        C  0.66897611  0.95580383  0.89814428    -0.18000
C418        C  0.62407919  0.95709769  0.87952659    -0.20200
C419        C  0.62395699  0.97930567  0.84763007     0.20400
C420        C  0.66945510  0.00035693  0.83420332    -0.03100
C421        C  0.71513969  0.99864288  0.85298201    -0.06200
C422        C  0.71454527  0.97636688  0.88506720     0.20700
C423        C  0.76117234  0.01921942  0.83980299     0.18900
C424        C  0.76066176  0.04155053  0.80781421    -0.17700
C425        C  0.71516765  0.04349419  0.78921515    -0.19900
C426        C  0.66921751  0.02299893  0.80215610     0.20400
C427        C  0.62298037  0.02503488  0.78394206    -0.32900
C428        C  0.57723195  0.00450399  0.79752992     0.01100
C429        C  0.57881696  0.98080152  0.82914211    -0.24200
C430        C  0.75934892  0.97518834  0.90382052    -0.28800
C431        C  0.80546507  0.99606045  0.89140100     0.06700
C432        C  0.80642439  0.01748655  0.85905748    -0.27500
H433        H  0.66806368  0.93863476  0.92280439     0.11500
H434        H  0.58933073  0.94089857  0.89015731     0.12600
H435        H  0.79542808  0.05771161  0.79720136     0.11700
H436        H  0.71593420  0.06110890  0.76469099     0.10900
H437        H  0.62249307  0.04342627  0.75964860     0.16300
H438        H  0.54475664  0.96287603  0.83956610     0.12200
H439        H  0.75816414  0.95791120  0.92847541     0.15100
H440        H  0.84170343  0.03391706  0.84933522     0.14800
C441        C  0.28398554  0.91338148  0.88015736    -0.18000
C442        C  0.32892966  0.91796004  0.86143584    -0.20200
C443        C  0.33306989  0.95655055  0.83651242     0.20400
C444        C  0.29100447  0.98975427  0.82972206    -0.03100
C445        C  0.24531600  0.98461019  0.84825728    -0.06200
C446        C  0.24226534  0.94698489  0.87404818     0.20700
C447        C  0.20319140  0.01797961  0.84152613     0.18900
C448        C  0.20693494  0.05552309  0.81597733    -0.17700
C449        C  0.25230237  0.06079396  0.79776329    -0.19900
C450        C  0.29470869  0.02848456  0.80467392     0.20400
C451        C  0.34062544  0.03440690  0.78693108    -0.32900
C452        C  0.38346307  0.00209368  0.79380809     0.01100
C453        C  0.37862166  0.96268698  0.81843816    -0.24200
C454        C  0.19822455  0.94483652  0.89396124    -0.28800
C455        C  0.15678104  0.97912642  0.88809899     0.06700
C456        C  0.15881249  0.01445868  0.86120354    -0.27500
H457        H  0.28211241  0.88403239  0.89973392     0.11500
H458        H  0.36077730  0.89189950  0.86683987     0.12600
H459        H  0.17503651  0.08143237  0.81043138     0.11700
H460        H  0.25436999  0.09055507  0.77844345     0.10900
H461        H  0.34157437  0.06354170  0.76742286     0.16300
H462        H  0.41067193  0.93666580  0.82351461     0.12200
H463        H  0.19657438  0.91733426  0.91460951     0.15100
H464        H  0.12708638  0.04121613  0.85682687     0.14800
C465        C  0.94620713  0.35797118  0.86497437    -0.18000
C466        C  0.94167699  0.31345359  0.88545998    -0.20200
C467        C  0.96100876  0.26410877  0.87516219     0.20400
C468        C  0.98379729  0.25909763  0.84354602    -0.03100
C469        C  0.98848235  0.30412416  0.82288698    -0.06200
C470        C  0.97012713  0.35396105  0.83380705     0.20700
C471        C  0.01245900  0.29945904  0.79162968     0.18900
C472        C  0.03030574  0.24972999  0.78089036    -0.17700
C473        C  0.02565286  0.20514763  0.80134103    -0.19900
C474        C  0.00302829  0.20944770  0.83290848     0.20400
C475        C  0.00063188  0.16548334  0.85438546    -0.32900
C476        C  0.98003530  0.17090419  0.88656415     0.01100
C477        C  0.95925325  0.22013225  0.89635127    -0.24200
C478        C  0.97692236  0.39901411  0.81369855    -0.28800
C479        C  0.00232582  0.39498106  0.78296385     0.06700
C480        C  0.01900035  0.34471619  0.77189284    -0.27500
H481        H  0.93166638  0.39574089  0.87373738     0.11500
H482        H  0.92377253  0.31782364  0.90963357     0.12600
H483        H  0.04860810  0.24546110  0.75683937     0.11700
H484        H  0.04050643  0.16745645  0.79266579     0.10900
H485        H  0.01667257  0.12779431  0.84660969     0.16300
H486        H  0.94250343  0.22455947  0.92088815     0.12200
H487        H  0.96380922  0.43735855  0.82241855     0.15100
H488        H  0.03721527  0.34068926  0.74779847     0.14800
C489        C  0.96558648  0.65787077  0.89551070    -0.18000
C490        C  0.96909459  0.61405034  0.87414185    -0.20200
C491        C  0.97659479  0.62123614  0.83988489     0.20400
C492        C  0.98034295  0.67329013  0.82712211    -0.03100
C493        C  0.97701525  0.71749137  0.84870103    -0.06200
C494        C  0.96977155  0.70966197  0.88302832     0.20700
C495        C  0.98182922  0.76943322  0.83596125     0.18900
C496        C  0.98931131  0.77667167  0.80174613    -0.17700
C497        C  0.99256640  0.73295700  0.78038063    -0.19900
C498        C  0.98841471  0.68123089  0.79285454     0.20400
C499        C  0.99354096  0.63733560  0.77172474    -0.32900
C500        C  0.99126133  0.58537525  0.78426284     0.01100
C501        C  0.98172173  0.57746938  0.81826916    -0.24200
C502        C  0.96788355  0.75367372  0.90436822    -0.28800
C503        C  0.97385748  0.80573760  0.89204340     0.06700
C504        C  0.98008886  0.81317267  0.85766299    -0.27500
H505        H  0.96009822  0.65122432  0.92188235     0.11500
H506        H  0.96627392  0.57452225  0.88444719     0.12600
H507        H  0.99311120  0.81616917  0.79152703     0.11700
H508        H  0.99886448  0.73960345  0.75409086     0.10900
H509        H  0.00066182  0.64352843  0.74545354     0.16300
H510        H  0.98058651  0.53750257  0.82804930     0.12200
H511        H  0.96269961  0.74706199  0.93077699     0.15100
H512        H  0.98467916  0.85284763  0.84782955     0.14800
C513        C  0.78377708  0.55228794  0.70600659    -0.18000
C514        C  0.73924214  0.55550757  0.68661600    -0.20200
C515        C  0.73309321  0.52321958  0.65833828     0.20400
C516        C  0.77182047  0.48629496  0.65016089    -0.03100
C517        C  0.81659180  0.48286191  0.66980502    -0.06200
C518        C  0.82306080  0.51664213  0.69757319     0.20700
C519        C  0.85568810  0.44691746  0.66088116     0.18900
C520        C  0.84896960  0.41330004  0.63336812    -0.17700
C521        C  0.80484602  0.41679349  0.61391821    -0.19900
C522        C  0.76661873  0.45383847  0.62172059     0.20400
C523        C  0.72396537  0.45980587  0.60103338    -0.32900
C524        C  0.68568028  0.49713094  0.60844447     0.01100
C525        C  0.68972256  0.52795141  0.63760807    -0.24200
C526        C  0.86951249  0.51567155  0.71541973    -0.28800
C527        C  0.90969080  0.48218393  0.70523549     0.06700
C528        C  0.90176493  0.44677951  0.67866476    -0.27500
H529        H  0.78791704  0.57846013  0.72725295     0.11500
H530        H  0.70999543  0.58399111  0.69340619     0.12600
H531        H  0.87848336  0.38524059  0.62635256     0.11700
H532        H  0.80111312  0.39125840  0.59232568     0.10900
H533        H  0.72060067  0.43548032  0.57883654     0.16300
H534        H  0.66023866  0.55675033  0.64342160     0.12200
H535        H  0.87551714  0.54301952  0.73590165     0.15100
H536        H  0.93238878  0.42035619  0.67108085     0.14800
C537        C  0.15461268  0.43975281  0.61898369    -0.18000
C538        C  0.20028055  0.43766423  0.60088038    -0.20200
C539        C  0.24445204  0.46300726  0.61282917     0.20400
C540        C  0.24266927  0.49097061  0.64318259    -0.03100
C541        C  0.19636604  0.49336709  0.66135798    -0.06200
C542        C  0.15226734  0.46738358  0.64928727     0.20700
C543        C  0.19446717  0.52097941  0.69181945     0.18900
C544        C  0.23863259  0.54663191  0.70362117    -0.17700
C545        C  0.28443320  0.54458905  0.68550542    -0.19900
C546        C  0.28704250  0.51663215  0.65531347     0.20400
C547        C  0.33278177  0.51479605  0.63669807    -0.32900
C548        C  0.33422547  0.48832658  0.60587908     0.01100
C549        C  0.29006459  0.46169109  0.59456909    -0.24200
C550        C  0.10676471  0.46878992  0.66786179    -0.28800
C551        C  0.10387024  0.49701147  0.69814682     0.06700
C552        C  0.14873756  0.52183912  0.71020681    -0.27500
H553        H  0.12111931  0.41965633  0.60929191     0.11500
H554        H  0.20105682  0.41617983  0.57750356     0.12600
H555        H  0.23779934  0.56821806  0.72695395     0.11700
H556        H  0.31786765  0.56481433  0.69516337     0.10900
H557        H  0.36637753  0.53586197  0.64540436     0.16300
H558        H  0.29084019  0.44086944  0.57092777     0.12200
H559        H  0.07398241  0.44673888  0.65892860     0.15100
H560        H  0.14878418  0.54092147  0.73433965     0.14800
C561        C  0.48061249  0.24397696  0.71386406    -0.18000
C562        C  0.48391642  0.28772288  0.69272524    -0.20200
C563        C  0.50028028  0.28139910  0.65973115     0.20400
C564        C  0.51370450  0.23034068  0.64800055    -0.03100
C565        C  0.51043462  0.18608115  0.66939243    -0.06200
C566        C  0.49362168  0.19312084  0.70239246     0.20700
C567        C  0.52314596  0.13479354  0.65765234     0.18900
C568        C  0.53945241  0.12854196  0.62458841    -0.17700
C569        C  0.54272968  0.17242343  0.60338477    -0.19900
C570        C  0.52968114  0.22338860  0.61482092     0.20400
C571        C  0.53156671  0.26735729  0.59353756    -0.32900
C572        C  0.51750780  0.31844689  0.60484669     0.01100
C573        C  0.50259504  0.32510158  0.63818596    -0.24200
C574        C  0.48881592  0.14907248  0.72319441    -0.28800
C575        C  0.49951102  0.09755491  0.71151876     0.06700
C576        C  0.51793652  0.09071938  0.67892815    -0.27500
H577        H  0.46745995  0.24987374  0.73916871     0.11500
H578        H  0.47333290  0.32649784  0.70214231     0.12600
H579        H  0.54927429  0.08963694  0.61503294     0.11700
H580        H  0.55511607  0.16642270  0.57792454     0.10900
H581        H  0.54356996  0.26156093  0.56796947     0.16300
H582        H  0.49147928  0.36400233  0.64716131     0.12200
H583        H  0.47529778  0.15470023  0.74846511     0.15100
H584        H  0.52593359  0.05115488  0.66974168     0.14800
C585        C  0.53765406  0.87429798  0.62892084    -0.18000
C586        C  0.53985971  0.83023215  0.60778396    -0.20200
C587        C  0.52718653  0.77955612  0.61957057     0.20400
C588        C  0.51295742  0.77286281  0.65306605    -0.03100
C589        C  0.51079921  0.81739035  0.67444200    -0.06200
C590        C  0.52283149  0.86844134  0.66222472     0.20700
C591        C  0.49549452  0.81100071  0.70778644     0.18900
C592        C  0.48355040  0.76016436  0.71967479    -0.17700
C593        C  0.48580516  0.71602012  0.69849188    -0.19900
C594        C  0.50005687  0.72191306  0.66503963     0.20400
C595        C  0.50084628  0.67806056  0.64322902    -0.32900
C596        C  0.51399704  0.68474091  0.60954523     0.01100
C597        C  0.52777428  0.73567954  0.59820744    -0.24200
C598        C  0.51821611  0.91288959  0.68318722    -0.28800
C599        C  0.50075345  0.90697628  0.71593320     0.06700
C600        C  0.49078859  0.85577611  0.72831948    -0.27500
H601        H  0.54696945  0.91307577  0.61910453     0.11500
H602        H  0.55098214  0.83588216  0.58207188     0.12600
H603        H  0.47175214  0.75463948  0.74526908     0.11700
H604        H  0.47583666  0.67734271  0.70819286     0.10900
H605        H  0.49013791  0.63916418  0.65226437     0.16300
H606        H  0.53865258  0.74151774  0.57245502     0.12200
H607        H  0.52556189  0.95222431  0.67354667     0.15100
H608        H  0.47780545  0.85103828  0.75375774     0.14800
C609        C  0.71632116  0.21307576  0.55334177    -0.18000
C610        C  0.75556939  0.17593375  0.55731149    -0.20200
C611        C  0.80233309  0.18221367  0.54056371     0.20400
C612        C  0.81019766  0.22717083  0.52039133    -0.03100
C613        C  0.77084738  0.26500286  0.51673091    -0.06200
C614        C  0.72333597  0.25729921  0.53275335     0.20700
C615        C  0.77866820  0.30987017  0.49645579     0.18900
C616        C  0.82590712  0.31685830  0.48041620    -0.17700
C617        C  0.86454269  0.27885819  0.48354431    -0.19900
C618        C  0.85684439  0.23363305  0.50314298     0.20400
C619        C  0.89435763  0.19405040  0.50499856    -0.32900
C620        C  0.88634277  0.14851108  0.52437502     0.01100
C621        C  0.84079829  0.14362754  0.54285151    -0.24200
C622        C  0.68344837  0.29347629  0.52748567    -0.28800
C623        C  0.69075502  0.33778211  0.50693324     0.06700
C624        C  0.73879830  0.34639001  0.49209201    -0.27500
H625        H  0.68021901  0.20684085  0.56603373     0.11500
H626        H  0.74897070  0.14172225  0.57296270     0.12600
H627        H  0.83263587  0.35121354  0.46492439     0.11700
H628        H  0.90026610  0.28455491  0.47032309     0.10900
H629        H  0.92922624  0.19782352  0.49056315     0.16300
H630        H  0.83467085  0.10872725  0.55801632     0.12200
H631        H  0.64682275  0.28747634  0.53961806     0.15100
H632        H  0.74469387  0.38082701  0.47647747     0.14800
C633        C  0.17315648  0.26315352  0.46910863    -0.18000
C634        C  0.21154596  0.30177823  0.46717436    -0.20200
C635        C  0.25873510  0.29413015  0.48312853     0.20400
C636        C  0.26747071  0.24690261  0.50094604    -0.03100
C637        C  0.22843915  0.20840890  0.50339719    -0.06200
C638        C  0.18107650  0.21654975  0.48737865     0.20700
C639        C  0.23667347  0.16207988  0.52221342     0.18900
C640        C  0.28413039  0.15390557  0.53759740    -0.17700
C641        C  0.32308534  0.19158221  0.53468625    -0.19900
C642        C  0.31503438  0.23832388  0.51664910     0.20400
C643        C  0.35352908  0.27687609  0.51443622    -0.32900
C644        C  0.34474381  0.32455604  0.49746843     0.01100
C645        C  0.29721759  0.33295210  0.48184692    -0.24200
C646        C  0.14243087  0.17814558  0.49018135    -0.28800
C647        C  0.15007402  0.13241777  0.50950895     0.06700
C648        C  0.19719627  0.12494423  0.52561379    -0.27500
H649        H  0.13704667  0.27001911  0.45663643     0.11500
H650        H  0.20429020  0.33768415  0.45324984     0.12600
H651        H  0.29108333  0.11839641  0.55198171     0.11700
H652        H  0.35936294  0.18443149  0.54687921     0.10900
H653        H  0.38985935  0.27047016  0.52677320     0.16300
H654        H  0.29033952  0.36957853  0.46854757     0.12200
H655        H  0.10616106  0.18393866  0.47764932     0.15100
H656        H  0.20300562  0.09011198  0.54087129     0.14800
C657        C  0.16117446  0.72796117  0.48162168    -0.18000
C658        C  0.20073777  0.69088542  0.47896037    -0.20200
C659        C  0.24690042  0.69874958  0.49606559     0.20400
C660        C  0.25258320  0.74320378  0.51713372    -0.03100
C661        C  0.21231661  0.78003489  0.52032074    -0.06200
C662        C  0.16696910  0.77310704  0.50175114     0.20700
C663        C  0.21816583  0.82471891  0.54119198     0.18900
C664        C  0.26338787  0.83124660  0.55950406    -0.17700
C665        C  0.30362157  0.79514733  0.55595115    -0.19900
C666        C  0.29897859  0.75163583  0.53433015     0.20400
C667        C  0.34003634  0.71673185  0.52930307    -0.32900
C668        C  0.33469079  0.67273471  0.50807427     0.01100
C669        C  0.28777821  0.66344043  0.49203861    -0.24200
C670        C  0.12908074  0.81237972  0.50276268    -0.28800
C671        C  0.13579993  0.85803164  0.52241413     0.06700
C672        C  0.17955335  0.86311857  0.54238303    -0.27500
H673        H  0.12640870  0.72181251  0.46747233     0.11500
H674        H  0.19570065  0.65671444  0.46288780     0.12600
H675        H  0.26822900  0.86513669  0.57583092     0.11700
H676        H  0.33869825  0.80175442  0.56968921     0.10900
H677        H  0.37582639  0.72320278  0.54232037     0.16300
H678        H  0.28350186  0.62923887  0.47586110     0.12200
H679        H  0.09509678  0.80839203  0.48751439     0.15100
H680        H  0.18424718  0.89808469  0.55784625     0.14800
C681        C  0.74068541  0.85110781  0.54447439    -0.18000
C682        C  0.70102198  0.81461779  0.54040768    -0.20200
C683        C  0.70798832  0.76958199  0.52038926     0.20400
C684        C  0.75503981  0.76152242  0.50382472    -0.03100
C685        C  0.79461728  0.79890433  0.50734427    -0.06200
C686        C  0.78752117  0.84349412  0.52813844     0.20700
C687        C  0.84134298  0.79146945  0.49030975     0.18900
C688        C  0.84830285  0.74643137  0.47024409    -0.17700
C689        C  0.80940509  0.70863596  0.46737721    -0.19900
C690        C  0.76276713  0.71579354  0.48414305     0.20400
C691        C  0.72398175  0.67766858  0.48207791    -0.32900
C692        C  0.67734444  0.68533584  0.49886812     0.01100
C693        C  0.66912651  0.73182422  0.51732337    -0.24200
C694        C  0.82733373  0.87981096  0.53218668    -0.28800
C695        C  0.87327799  0.87343452  0.51460247     0.06700
C696        C  0.88017771  0.82927144  0.49369392    -0.27500
H697        H  0.73470774  0.88534460  0.56035531     0.11500
H698        H  0.66514246  0.82120792  0.55330899     0.12600
H699        H  0.88398412  0.74019303  0.45704467     0.11700
H700        H  0.81580609  0.67378672  0.45209942     0.10900
H701        H  0.73008409  0.64191176  0.46755418     0.16300
H702        H  0.63327134  0.73749667  0.53047154     0.12200
H703        H  0.82244987  0.91363042  0.54860853     0.15100
H704        H  0.91581404  0.82450254  0.48016129     0.14800
C705        C  0.19835365  0.44589035  0.39942404    -0.18000
C706        C  0.15344014  0.44495319  0.38066728    -0.20200
C707        C  0.15313111  0.46460279  0.34807234     0.20400
C708        C  0.19889379  0.48374188  0.33386834    -0.03100
C709        C  0.24440769  0.48454474  0.35279705    -0.06200
C710        C  0.24372787  0.46626506  0.38582995     0.20700
C711        C  0.29025530  0.50443249  0.33889717     0.18900
C712        C  0.29024378  0.52178009  0.30576065    -0.17700
C713        C  0.24513561  0.52063465  0.28691355    -0.19900
C714        C  0.19908654  0.50243928  0.30090476     0.20400
C715        C  0.15310891  0.50349270  0.28276599    -0.32900
C716        C  0.10637330  0.48767643  0.29741656     0.01100
C717        C  0.10761984  0.46599126  0.32971846    -0.24200
C718        C  0.28810892  0.46958970  0.40502123    -0.28800
C719        C  0.33365726  0.49135167  0.39202153     0.06700
C720        C  0.33481912  0.50756118  0.35858828    -0.27500
H721        H  0.19741509  0.43141674  0.42475651     0.11500
H722        H  0.11871212  0.42972507  0.39187854     0.12600
H723        H  0.32499272  0.53687947  0.29452931     0.11700
H724        H  0.24608652  0.53488457  0.26154023     0.10900
H725        H  0.15351576  0.51758278  0.25734562     0.16300
H726        H  0.07365717  0.44928245  0.34083948     0.12200
H727        H  0.28681374  0.45575121  0.43050737     0.15100
H728        H  0.36969670  0.52398081  0.34826882     0.14800
C729        C  0.85419099  0.41774359  0.36862672    -0.18000
C730        C  0.80973491  0.42068938  0.38787491    -0.20200
C731        C  0.76923610  0.45373004  0.37829413     0.20400
C732        C  0.77271687  0.48278114  0.34847389    -0.03100
C733        C  0.81789746  0.48014739  0.32913693    -0.06200
C734        C  0.85899461  0.44807801  0.33960133     0.20700
C735        C  0.82257287  0.51083710  0.29998095     0.18900
C736        C  0.78115086  0.54235938  0.28986738    -0.17700
C737        C  0.73615177  0.54462527  0.30889629    -0.19900
C738        C  0.73174973  0.51562843  0.33852808     0.20400
C739        C  0.68792776  0.51999657  0.35889793    -0.32900
C740        C  0.68551251  0.49295080  0.38941806     0.01100
C741        C  0.72595760  0.45924228  0.39853206    -0.24200
C742        C  0.90492159  0.44838102  0.32161790    -0.28800
C743        C  0.91116116  0.48122435  0.29363710     0.06700
C744        C  0.86919103  0.51099101  0.28226684    -0.27500
H745        H  0.88534057  0.39272805  0.37689822     0.11500
H746        H  0.80737608  0.39782536  0.41058303     0.12600
H747        H  0.78388486  0.56604558  0.26751564     0.11700
H748        H  0.70515867  0.56994448  0.30076697     0.10900
H749        H  0.65685407  0.54601142  0.35176288     0.16300
H750        H  0.72394817  0.43762901  0.42177045     0.12200
H751        H  0.93653410  0.42410426  0.33005465     0.15100
H752        H  0.87358898  0.53627289  0.26072021     0.14800
C753        C  0.52048048  0.88298945  0.37270046    -0.18000
C754        C  0.52187943  0.83951150  0.39425493    -0.20200
C755        C  0.51669557  0.78757871  0.38194185     0.20400
C756        C  0.51088870  0.77930084  0.34749675    -0.03100
C757        C  0.50928469  0.82329641  0.32569543    -0.06200
C758        C  0.51377498  0.87544808  0.33840041     0.20700
C759        C  0.50201577  0.81514037  0.29132857     0.18900
C760        C  0.49799358  0.76314911  0.27893799    -0.17700
C761        C  0.49997772  0.71962557  0.30048989    -0.19900
C762        C  0.50580034  0.72719188  0.33489211     0.20400
C763        C  0.50590822  0.68371767  0.35689285    -0.32900
C764        C  0.51066980  0.69159400  0.39147975     0.01100
C765        C  0.51656297  0.74394491  0.40357464    -0.24200
C766        C  0.50996461  0.91909673  0.31676847    -0.28800
C767        C  0.50040165  0.91126252  0.28276713     0.06700
C768        C  0.49738777  0.85912333  0.27014875    -0.27500
H769        H  0.52398065  0.92261301  0.38294019     0.11500
H770        H  0.52652906  0.84657122  0.42066788     0.12600
H771        H  0.49261025  0.75614309  0.25257859     0.11700
H772        H  0.49621517  0.68001676  0.29027046     0.10900
H773        H  0.50155027  0.64389360  0.34709895     0.16300
H774        H  0.52082337  0.75103187  0.43002147     0.12200
H775        H  0.51186921  0.95912161  0.32659216     0.15100
H776        H  0.49025311  0.85291909  0.24386583     0.14800
C777        C  0.47805114  0.24935008  0.27879748    -0.18000
C778        C  0.48235557  0.29369207  0.29967693    -0.20200
C779        C  0.50346740  0.28881878  0.33160342     0.20400
C780        C  0.52223071  0.23898748  0.34197697    -0.03100
C781        C  0.51772149  0.19413613  0.32092475    -0.06200
C782        C  0.49451999  0.19924788  0.28951395     0.20700
C783        C  0.53476664  0.14390759  0.33178893     0.18900
C784        C  0.55830634  0.13956989  0.36300752    -0.17700
C785        C  0.56281783  0.18395390  0.38382931    -0.19900
C786        C  0.54384970  0.23350050  0.37383877     0.20400
C787        C  0.54457778  0.27710983  0.39560809    -0.32900
C788        C  0.52383648  0.32647145  0.38619196     0.01100
C789        C  0.50463942  0.33234450  0.35369399    -0.24200
C790        C  0.48643798  0.15395025  0.26987141    -0.28800
C791        C  0.50029554  0.10315003  0.28133014     0.06700
C792        C  0.52619975  0.09873108  0.31183343    -0.27500
H793        H  0.46051682  0.25399195  0.25458295     0.11500
H794        H  0.46811118  0.33158641  0.29111540     0.12600
H795        H  0.57205505  0.10155198  0.37169821     0.11700
H796        H  0.57998766  0.17920950  0.40814442     0.10900
H797        H  0.56035457  0.27217542  0.42031914     0.16300
H798        H  0.48879633  0.37008438  0.34604732     0.12200
H799        H  0.46831798  0.15824005  0.24581422     0.15100
H800        H  0.53760414  0.06000712  0.32073247     0.14800
loop_ 
_geom_bond_atom_site_label_1 
_geom_bond_atom_site_label_2 
_geom_bond_distance 
_geom_bond_site_symmetry_2 
_ccdc_geom_bond_type 
O1           C12   1.298       .  A
O1          Eu37   2.493       .  S
O2           C13   1.299       .  A
O2          Eu36   2.499       .  S
O3           C14   1.294       .  A
O3           Eu9   2.477       .  S
O4           C15   1.294       .  A
O4           Eu9   2.476       .  S
O5           C15   1.287       .  A
O5          Eu39   2.440       .  S
O6           C14   1.287       .  A
O6          Eu38   2.436       .  S
O7           C13   1.288       .  A
O7           Eu9   2.434       .  S
O8           C12   1.292       .  A
O8           Eu9   2.455       .  S
Eu9          O19   2.351       .  S
Eu9          O11   2.346       .  S
Eu9          O10   2.352       .  S
Eu9          O17   2.348       .  S
O10         Eu39   2.342       .  S
O10         Eu36   2.362       .  S
O11         Eu37   2.372       .  S
O11         Eu38   2.347       .  S
C12         C788   1.492       .  S
C13         C572   1.489       .  S
C14         C623   1.476       .  S
C15         C644   1.479       .  S
H16          O17   0.965       .  S
O17         Eu38   2.344       .  S
O17         Eu36   2.361       .  S
H18          O19   0.965       .  S
O19         Eu37   2.362       .  S
O19         Eu39   2.346       .  S
O20          C43   1.297       .  A
O20         Eu36   2.493       .  S
O21          C44   1.300       .  A
O21         Eu37   2.505       .  S
O22          C45   1.293       .  A
O22         Eu38   2.464       .  S
O23          C46   1.286       .  A
O23         Eu39   2.428       .  S
O24          C47   1.286       .  A
O24         Eu39   2.419       .  S
O25          C48   1.290       .  A
O25         Eu38   2.449       .  S
O26          C49   1.290       .  A
O26         Eu40   2.453       .  S
O27          C50   1.291       .  A
O27         Eu40   2.462       .  S
O28          C49   1.287       .  A
O28         Eu38   2.436       .  S
O29          C50   1.288       .  A
O29         Eu39   2.443       .  S
O30          C45   1.295       .  A
O30         Eu36   2.483       .  S
O31          C48   1.295       .  A
O31         Eu37   2.483       .  S
O32          C47   1.298       .  A
O32         Eu37   2.502       .  S
O33          C46   1.298       .  A
O33         Eu36   2.500       .  S
O34          C43   1.289       .  A
O34         Eu40   2.436       .  S
O35          C44   1.291       .  A
O35         Eu40   2.452       .  S
Eu36         O54   2.360       .  S
Eu36         O42   2.372       .  S
Eu37         O41   2.367       .  S
Eu37         O52   2.368       .  S
Eu38         O52   2.352       .  S
Eu38         O42   2.348       .  S
Eu39         O41   2.349       .  S
Eu39         O54   2.345       .  S
Eu40         O41   2.354       .  S
Eu40         O52   2.354       .  S
Eu40         O54   2.355       .  S
Eu40         O42   2.353       .  S
C43         C596   1.488       .  S
C44         C764   1.499       .  S
C45         C524   1.482       .  S
C46         C548   1.485       .  S
C47         C719   1.486       .  S
C48         C740   1.482       .  S
C49         C692   1.467       .  S
C50         C668   1.472       .  S
H51          O52   0.966       .  S
H53          O54   0.965       .  S
N55          C60   1.353   1_455  A
N55          C59   1.351       .  A
N55          H87   1.041       .  S
N56          C63   1.350   1_565  A
N56          C64   1.351       .  A
N57          C62   1.347   1_455  A
N57          C61   1.350       .  A
N57          H88   1.041       .  S
N58          C65   1.350       .  A
N58          C66   1.349   1_545  A
C59          C67   1.387       .  A
C59          C75   1.415       .  A
C60          C76   1.415       .  A
C60          C68   1.386       .  A
C61          C69   1.387       .  A
C61          C78   1.409       .  A
C62          C77   1.407       .  A
C62          C70   1.387       .  A
C63          C75   1.414       .  A
C63          C71   1.387       .  A
C64          C78   1.411       .  A
C64          C72   1.385       .  A
C65          C73   1.386       .  A
C65          C76   1.410       .  A
C66          C74   1.387       .  A
C66          C77   1.410       .  A
C67          C68   1.378   1_455  A
C67          H79   1.082       .  S
C68          H80   1.082       .  S
C69          C70   1.376   1_455  A
C69          H81   1.082       .  S
C70          H82   1.082       .  S
C71          C72   1.374   1_545  A
C71          H83   1.082       .  S
C72          H84   1.082       .  S
C73          C74   1.372   1_545  A
C73          H85   1.082       .  S
C74          H86   1.082       .  S
C75         C647   1.490       .  S
C76         C620   1.492       .  S
C77         C695   1.478       .  S
C78         C671   1.484       .  S
O89         C100   1.299       .  A
O89        Eu125   2.496       .  S
O90         C101   1.300       .  A
O90        Eu124   2.506       .  S
O91         C102   1.290       .  A
O91         Eu97   2.459   1_455  S
O92         C103   1.290       .  A
O92         Eu97   2.454       .  S
O93         C103   1.285       .  A
O93        Eu127   2.428       .  S
O94         C102   1.289       .  A
O94        Eu126   2.444       .  S
O95         C101   1.290       .  A
O95         Eu97   2.448   1_554  S
O96         C100   1.287       .  A
O96         Eu97   2.426       .  S
Eu97        O107   2.351       .  S
Eu97         O99   2.350   1_655  S
Eu97         O98   2.350   1_556  S
Eu97        O105   2.354   1_656  S
O98        Eu127   2.349   1_554  S
O98        Eu124   2.366       .  S
O99        Eu125   2.363   1_455  S
O99        Eu126   2.339       .  S
C100        C503   1.487       .  S
C101        C284   1.496       .  S
C102        C332   1.474       .  S
C103        C359   1.463       .  S
H104        O105   0.967       .  S
O105       Eu126   2.353   1_554  S
O105       Eu124   2.370   1_455  S
H106        O107   0.966       .  S
O107       Eu125   2.362       .  S
O107       Eu127   2.339       .  S
O108        C131   1.298       .  A
O108       Eu124   2.495   1_545  S
O109        C132   1.296       .  A
O109       Eu125   2.489   1_545  S
O110        C133   1.287       .  A
O110       Eu126   2.428   1_554  S
O111        C134   1.287       .  A
O111       Eu127   2.426   1_544  S
O112        C135   1.289       .  A
O112       Eu127   2.435       .  S
O113        C136   1.290       .  A
O113       Eu126   2.447       .  S
O114        C137   1.292       .  A
O114       Eu128   2.466   1_455  S
O115        C138   1.292       .  A
O115       Eu128   2.469       .  S
O116        C137   1.289       .  A
O116       Eu126   2.452   1_545  S
O117        C138   1.287   1_554  A
O117       Eu127   2.436   1_544  S
O118        C133   1.294       .  A
O118       Eu124   2.485   1_455  S
O119        C136   1.295       .  A
O119       Eu125   2.484   1_455  S
O120        C135   1.296       .  A
O120       Eu125   2.490       .  S
O121        C134   1.295   1_565  A
O121       Eu124   2.484       .  S
O122        C131   1.289       .  A
O122       Eu128   2.437   1_554  S
O123        C132   1.290       .  A
O123       Eu128   2.445       .  S
Eu124       O142   2.366   1_565  S
Eu124       O130   2.367   1_665  S
Eu125       O129   2.361   1_565  S
Eu125       O140   2.367   1_665  S
Eu126       O140   2.352   1_565  S
Eu126       O130   2.339   1_566  S
Eu127       O129   2.340   1_565  S
Eu127       O142   2.336   1_566  S
Eu128       O129   2.343       .  S
Eu128       O140   2.351   1_655  S
Eu128       O142   2.350   1_556  S
Eu128       O130   2.349   1_656  S
C131        C308   1.489       .  S
C132        C476   1.487       .  S
C133        C236   1.489       .  S
C134        C263   1.480       .  S
C135        C431   1.486       .  S
C136        C455   1.478       .  S
C137        C404   1.473       .  S
C138        C383   1.470   1_556  S
H139        O140   0.966       .  S
H141        O142   0.966       .  S
N143        C148   1.352       .  A
N143        C147   1.349       .  A
N143        H175   1.040   1_556  S
N144        C151   1.349       .  A
N144        C152   1.350       .  A
N145        C150   1.352   1_554  A
N145        C149   1.354       .  A
N145        H176   1.041       .  S
N146        C153   1.353       .  A
N146        C154   1.350       .  A
C147        C155   1.388       .  A
C147        C163   1.410       .  A
C148        C164   1.412       .  A
C148        C156   1.386       .  A
C149        C157   1.388   1_554  A
C149        C166   1.416       .  A
C150        C165   1.412       .  A
C150        C158   1.386       .  A
C151        C163   1.412   1_554  A
C151        C159   1.388       .  A
C152        C166   1.411       .  A
C152        C160   1.386       .  A
C153        C161   1.386   1_556  A
C153        C164   1.413       .  A
C154        C162   1.386   1_556  A
C154        C165   1.412       .  A
C155        C156   1.375       .  A
C155        H167   1.082       .  S
C156        H168   1.082       .  S
C157        C158   1.376       .  A
C157        H169   1.082       .  S
C158        H170   1.082       .  S
C159        C160   1.374       .  A
C159        H171   1.082       .  S
C160        H172   1.082       .  S
C161        C162   1.371       .  A
C161        H173   1.082       .  S
C162        H174   1.082       .  S
C163        C356   1.476       .  S
C164        C335   1.491       .  S
C165        C407   1.487       .  S
C166        C380   1.488       .  S
C177        C178   1.526       .  S
C177        C183   1.542       .  S
C177        C181   1.535       .  S
C177        C716   1.533       .  S
C178        H185   1.087       .  S
C178        C179   1.364       .  D
C179        C180   1.545   1_455  S
C179        C311   1.480   1_455  S
C180        C184   1.546       .  S
C180        C182   1.553   1_655  S
C180        H186   1.110       .  S
C181        H187   1.085       .  S
C181        C182   1.371       .  D
C182        C287   1.499   1_455  S
C183        H188   1.083       .  S
C183        C184   1.369   1_455  D
C184        C743   1.492       .  S
C189        C190   1.529   1_545  S
C189        C195   1.541       .  S
C189        C193   1.534       .  S
C189        C239   1.537       .  S
C190        H197   1.086       .  S
C190        C191   1.368       .  D
C191        C192   1.555   1_565  S
C191        C767   1.489       .  S
C192        C196   1.541       .  S
C192        C194   1.546       .  S
C192        H198   1.109       .  S
C193        H199   1.086       .  S
C193        C194   1.370       .  D
C194        C791   1.494       .  S
C195        H200   1.077       .  S
C195        C196   1.365       .  D
C196        C260   1.492       .  S
C201        C202   1.533       .  S
C201        C207   1.541       .  S
C201        C205   1.530       .  S
C201        C551   1.532       .  S
C202        H209   1.085       .  S
C202        C203   1.364       .  D
C203        C204   1.546   1_455  S
C203        C500   1.485   1_455  S
C204        C208   1.544       .  S
C204        C206   1.549   1_655  S
C204        H210   1.110       .  S
C205        H211   1.086       .  S
C205        C206   1.369       .  D
C206        C479   1.493       .  S
C207        H212   1.085       .  S
C207        C208   1.370   1_455  D
C208        C527   1.488       .  S
C213        C214   1.534       .  S
C213        C219   1.535       .  S
C213        C217   1.526   1_545  S
C213        C452   1.531       .  S
C214        H221   1.081       .  S
C214        C215   1.366       .  D
C215        C216   1.549       .  S
C215        C575   1.489       .  S
C216        C220   1.549       .  S
C216        C218   1.548   1_545  S
C216        H222   1.110       .  S
C217        H223   1.087       .  S
C217        C218   1.363       .  D
C218        C599   1.484       .  S
C219        H224   1.085       .  S
C219        C220   1.375       .  D
C220        C428   1.498       .  S
C225        C226   1.406   1_545  A
C225        C230   1.407       .  A
C225        H241   1.083   1_545  S
C226        C227   1.406   1_565  A
C226        H242   1.083       .  S
C227        C237   1.415   1_545  A
C227        C228   1.413       .  A
C228        C234   1.407       .  A
C228        C229   1.412       .  A
C229        C231   1.408       .  A
C229        C230   1.409       .  A
C230        C238   1.411       .  A
C231        C240   1.394       .  A
C231        C232   1.402       .  A
C232        C233   1.391       .  A
C232        H243   1.084       .  S
C233        C234   1.401       .  A
C233        H244   1.084       .  S
C234        C235   1.389       .  A
C235        C236   1.409   1_545  A
C235        H245   1.084       .  S
C236        C237   1.412       .  A
C237        H246   1.084       .  S
C238        C239   1.415       .  A
C238        H247   1.084       .  S
C239        C240   1.412       .  A
C240        H248   1.073       .  S
C249        C250   1.394       .  A
C249        C254   1.402       .  A
C249        H265   1.083       .  S
C250        C251   1.402       .  A
C250        H266   1.084       .  S
C251        C261   1.394       .  A
C251        C252   1.409       .  A
C252        C258   1.413   1_545  A
C252        C253   1.411       .  A
C253        C255   1.413   1_545  A
C253        C254   1.409       .  A
C254        C262   1.393       .  A
C255        C264   1.410       .  A
C255        C256   1.405       .  A
C256        C257   1.403       .  A
C256        H267   1.083       .  S
C257        C258   1.405       .  A
C257        H268   1.083       .  S
C258        C259   1.410       .  A
C259        C260   1.407   1_565  A
C259        H269   1.083       .  S
C260        C261   1.410       .  A
C261        H270   1.084       .  S
C262        C263   1.407       .  A
C262        H271   1.084       .  S
C263        C264   1.407   1_545  A
C264        H272   1.084       .  S
C273        C274   1.402       .  A
C273        C278   1.404       .  A
C273        H289   1.084       .  S
C274        C275   1.406       .  A
C274        H290   1.084       .  S
C275        C285   1.406       .  A
C275        C276   1.409       .  A
C276        C282   1.414       .  A
C276        C277   1.418       .  A
C277        C279   1.409   1_655  A
C277        C278   1.414       .  A
C278        C286   1.412       .  A
C279        C288   1.405       .  A
C279        C280   1.405       .  A
C280        C281   1.401       .  A
C280        H291   1.083       .  S
C281        C282   1.404   1_455  A
C281        H292   1.083       .  S
C282        C283   1.411       .  A
C283        C284   1.408       .  A
C283        H293   1.084   1_655  S
C284        C285   1.414       .  A
C285        H294   1.084       .  S
C286        C287   1.408       .  A
C286        H295   1.083       .  S
C287        C288   1.412   1_655  A
C288        H296   1.083       .  S
C297        C298   1.399       .  A
C297        C302   1.403       .  A
C297        H313   1.084       .  S
C298        C299   1.405       .  A
C298        H314   1.084       .  S
C299        C309   1.400       .  A
C299        C300   1.407       .  A
C300        C306   1.414       .  A
C300        C301   1.413       .  A
C301        C303   1.409       .  A
C301        C302   1.415       .  A
C302        C310   1.407       .  A
C303        C312   1.401   1_655  A
C303        C304   1.404       .  A
C304        C305   1.400       .  A
C304        H315   1.084   1_655  S
C305        C306   1.403       .  A
C305        H316   1.083   1_655  S
C306        C307   1.408       .  A
C307        C308   1.407       .  A
C307        H317   1.084       .  S
C308        C309   1.412       .  A
C309        H318   1.084       .  S
C310        C311   1.402       .  A
C310        H319   1.084       .  S
C311        C312   1.407   1_655  A
C312        H320   1.085       .  S
C321        C322   1.395       .  A
C321        C326   1.402       .  A
C321        H337   1.084       .  S
C322        C323   1.402       .  A
C322        H338   1.084       .  S
C323        C333   1.396       .  A
C323        C324   1.411   1_554  A
C324        C330   1.412       .  A
C324        C325   1.410       .  A
C325        C327   1.412       .  A
C325        C326   1.411   1_556  A
C326        C334   1.397   1_554  A
C327        C336   1.406       .  A
C327        C328   1.405       .  A
C328        C329   1.402       .  A
C328        H339   1.084       .  S
C329        C330   1.405       .  A
C329        H340   1.084       .  S
C330        C331   1.407       .  A
C331        C332   1.407       .  A
C331        H341   1.084       .  S
C332        C333   1.403   1_556  A
C333        H342   1.085       .  S
C334        C335   1.404       .  A
C334        H343   1.085   1_556  S
C335        C336   1.409       .  A
C336        H344   1.084       .  S
C345        C346   1.398       .  A
C345        C350   1.403       .  A
C345        H361   1.084       .  S
C346        C347   1.403       .  A
C346        H362   1.084       .  S
C347        C357   1.400       .  A
C347        C348   1.413   1_554  A
C348        C354   1.412       .  A
C348        C349   1.407       .  A
C349        C351   1.412       .  A
C349        C350   1.412   1_556  A
C350        C358   1.399       .  A
C351        C360   1.398       .  A
C351        C352   1.402       .  A
C352        C353   1.396       .  A
C352        H363   1.084       .  S
C353        C354   1.402       .  A
C353        H364   1.084       .  S
C354        C355   1.397       .  A
C355        C356   1.401       .  A
C355        H365   1.085       .  S
C356        C357   1.403   1_556  A
C357        H366   1.084       .  S
C358        C359   1.403   1_554  A
C358        H367   1.085       .  S
C359        C360   1.402       .  A
C360        H368   1.085       .  S
C369        C370   1.399       .  A
C369        C374   1.404       .  A
C369        H385   1.083       .  S
C370        C371   1.404       .  A
C370        H386   1.084       .  S
C371        C381   1.404       .  A
C371        C372   1.413       .  A
C372        C378   1.411   1_554  A
C372        C373   1.411       .  A
C373        C375   1.414   1_554  A
C373        C374   1.411       .  A
C374        C382   1.401       .  A
C375        C384   1.404       .  A
C375        C376   1.403       .  A
C376        C377   1.399       .  A
C376        H387   1.084       .  S
C377        C378   1.403       .  A
C377        H388   1.083       .  S
C378        C379   1.401       .  A
C379        C380   1.405   1_556  A
C379        H389   1.084       .  S
C380        C381   1.406       .  A
C381        H390   1.084       .  S
C382        C383   1.406       .  A
C382        H391   1.084       .  S
C383        C384   1.403   1_554  A
C384        H392   1.085       .  S
C393        C394   1.402       .  A
C393        C398   1.405       .  A
C393        H409   1.084       .  S
C394        C395   1.405       .  A
C394        H410   1.084       .  S
C395        C405   1.407       .  A
C395        C396   1.412   1_554  A
C396        C402   1.412       .  A
C396        C397   1.411       .  A
C397        C399   1.411       .  A
C397        C398   1.413   1_556  A
C398        C406   1.406       .  A
C399        C408   1.397       .  A
C399        C400   1.402       .  A
C400        C401   1.396       .  A
C400        H411   1.084       .  S
C401        C402   1.402       .  A
C401        H412   1.083       .  S
C402        C403   1.400       .  A
C403        C404   1.402       .  A
C403        H413   1.085       .  S
C404        C405   1.407   1_556  A
C405        H414   1.085       .  S
C406        C407   1.407   1_554  A
C406        H415   1.084       .  S
C407        C408   1.403       .  A
C408        H416   1.085       .  S
C417        C418   1.393       .  A
C417        C422   1.401       .  A
C417        H433   1.084       .  S
C418        C419   1.402       .  A
C418        H434   1.084       .  S
C419        C429   1.396       .  A
C419        C420   1.410   1_565  A
C420        C426   1.412       .  A
C420        C421   1.414   1_545  A
C421        C423   1.413   1_565  A
C421        C422   1.409       .  A
C422        C430   1.394       .  A
C423        C432   1.415       .  A
C423        C424   1.406       .  A
C424        C425   1.407       .  A
C424        H435   1.083       .  S
C425        C426   1.407       .  A
C425        H436   1.083       .  S
C426        C427   1.415       .  A
C427        C428   1.413       .  A
C427        H437   1.083       .  S
C428        C429   1.407   1_545  A
C429        H438   1.083       .  S
C430        C431   1.407       .  A
C430        H439   1.085       .  S
C431        C432   1.411   1_565  A
C432        H440   1.084       .  S
C441        C442   1.399       .  A
C441        C446   1.404       .  A
C441        H457   1.084       .  S
C442        C443   1.404       .  A
C442        H458   1.084       .  S
C443        C453   1.403       .  A
C443        C444   1.410       .  A
C444        C450   1.409   1_565  A
C444        C445   1.413       .  A
C445        C447   1.413   1_565  A
C445        C446   1.411       .  A
C446        C454   1.402       .  A
C447        C456   1.406       .  A
C447        C448   1.403       .  A
C448        C449   1.399       .  A
C448        H459   1.084       .  S
C449        C450   1.405       .  A
C449        H460   1.084       .  S
C450        C451   1.404       .  A
C451        C452   1.413       .  A
C451        H461   1.077       .  S
C452        C453   1.411   1_545  A
C453        H462   1.084       .  S
C454        C455   1.407       .  A
C454        H463   1.085       .  S
C455        C456   1.405   1_565  A
C456        H464   1.084       .  S
C465        C466   1.400       .  A
C465        C470   1.403       .  A
C465        H481   1.083       .  S
C466        C467   1.404       .  A
C466        H482   1.084       .  S
C467        C477   1.402       .  A
C467        C468   1.409       .  A
C468        C474   1.414   1_655  A
C468        C469   1.415       .  A
C469        C471   1.408   1_655  A
C469        C470   1.414       .  A
C470        C478   1.408       .  A
C471        C480   1.403       .  A
C471        C472   1.405       .  A
C472        C473   1.401       .  A
C472        H483   1.084       .  S
C473        C474   1.404       .  A
C473        H484   1.084       .  S
C474        C475   1.409       .  A
C475        C476   1.407   1_455  A
C475        H485   1.084       .  S
C476        C477   1.410       .  A
C477        H486   1.084       .  S
C478        C479   1.406   1_655  A
C478        H487   1.083       .  S
C479        C480   1.411       .  A
C480        H488   1.084       .  S
C489        C490   1.401       .  A
C489        C494   1.405       .  A
C489        H505   1.084       .  S
C490        C491   1.404       .  A
C490        H506   1.084       .  S
C491        C501   1.409       .  A
C491        C492   1.415       .  A
C492        C498   1.409       .  A
C492        C493   1.413       .  A
C493        C495   1.414       .  A
C493        C494   1.408       .  A
C494        C502   1.402       .  A
C495        C504   1.405       .  A
C495        C496   1.402       .  A
C496        C497   1.398       .  A
C496        H507   1.084       .  S
C497        C498   1.404       .  A
C497        H508   1.083       .  S
C498        C499   1.400       .  A
C499        C500   1.407       .  A
C499        H509   1.084   1_655  S
C500        C501   1.405       .  A
C501        H510   1.084       .  S
C502        C503   1.414       .  A
C502        H511   1.084       .  S
C503        C504   1.405       .  A
C504        H512   1.084       .  S
C513        C514   1.404       .  A
C513        C518   1.406       .  A
C513        H529   1.083       .  S
C514        C515   1.406       .  A
C514        H530   1.083       .  S
C515        C525   1.413       .  A
C515        C516   1.414       .  A
C516        C522   1.411       .  A
C516        C517   1.416       .  A
C517        C519   1.412       .  A
C517        C518   1.413       .  A
C518        C526   1.411       .  A
C519        C528   1.401       .  A
C519        C520   1.403       .  A
C520        C521   1.397       .  A
C520        H531   1.084       .  S
C521        C522   1.403       .  A
C521        H532   1.084       .  S
C522        C523   1.400       .  A
C523        C524   1.405       .  A
C523        H533   1.085       .  S
C524        C525   1.409       .  A
C525        H534   1.084       .  S
C526        C527   1.408       .  A
C526        H535   1.084       .  S
C527        C528   1.406       .  A
C528        H536   1.085       .  S
C537        C538   1.398       .  A
C537        C542   1.403       .  A
C537        H553   1.084       .  S
C538        C539   1.404       .  A
C538        H554   1.084       .  S
C539        C549   1.400       .  A
C539        C540   1.408       .  A
C540        C546   1.414       .  A
C540        C541   1.414       .  A
C541        C543   1.408       .  A
C541        C542   1.411       .  A
C542        C550   1.404       .  A
C543        C552   1.405       .  A
C543        C544   1.405       .  A
C544        C545   1.401       .  A
C544        H555   1.083       .  S
C545        C546   1.404       .  A
C545        H556   1.083       .  S
C546        C547   1.410       .  A
C547        C548   1.406       .  A
C547        H557   1.084       .  S
C548        C549   1.410       .  A
C549        H558   1.085       .  S
C550        C551   1.411       .  A
C550        H559   1.082       .  S
C551        C552   1.415       .  A
C552        H560   1.082       .  S
C561        C562   1.398       .  A
C561        C566   1.404       .  A
C561        H577   1.084       .  S
C562        C563   1.402       .  A
C562        H578   1.084       .  S
C563        C573   1.406       .  A
C563        C564   1.414       .  A
C564        C570   1.408       .  A
C564        C565   1.414       .  A
C565        C567   1.415       .  A
C565        C566   1.408       .  A
C566        C574   1.399       .  A
C567        C576   1.412       .  A
C567        C568   1.404       .  A
C568        C569   1.402       .  A
C568        H579   1.084       .  S
C569        C570   1.406       .  A
C569        H580   1.084       .  S
C570        C571   1.404       .  A
C571        C572   1.414       .  A
C571        H581   1.084       .  S
C572        C573   1.405       .  A
C573        H582   1.084       .  S
C574        C575   1.408       .  A
C574        H583   1.084       .  S
C575        C576   1.406       .  A
C576        H584   1.083       .  S
C585        C586   1.398       .  A
C585        C590   1.402       .  A
C585        H601   1.084       .  S
C586        C587   1.404       .  A
C586        H602   1.084       .  S
C587        C597   1.399       .  A
C587        C588   1.408       .  A
C588        C594   1.414       .  A
C588        C589   1.413       .  A
C589        C591   1.409       .  A
C589        C590   1.415       .  A
C590        C598   1.406       .  A
C591        C600   1.402       .  A
C591        C592   1.405       .  A
C592        C593   1.401       .  A
C592        H603   1.084       .  S
C593        C594   1.404       .  A
C593        H604   1.084       .  S
C594        C595   1.409       .  A
C595        C596   1.408       .  A
C595        H605   1.084       .  S
C596        C597   1.411       .  A
C597        H606   1.084       .  S
C598        C599   1.402       .  A
C598        H607   1.083       .  S
C599        C600   1.410       .  A
C600        H608   1.084       .  S
C609        C610   1.399       .  A
C609        C614   1.403       .  A
C609        H625   1.084       .  S
C610        C611   1.404       .  A
C610        H626   1.084       .  S
C611        C621   1.403       .  A
C611        C612   1.411       .  A
C612        C618   1.412       .  A
C612        C613   1.412       .  A
C613        C615   1.412       .  A
C613        C614   1.412       .  A
C614        C622   1.403       .  A
C615        C624   1.403       .  A
C615        C616   1.404       .  A
C616        C617   1.399       .  A
C616        H627   1.083       .  S
C617        C618   1.403       .  A
C617        H628   1.084       .  S
C618        C619   1.402       .  A
C619        C620   1.406       .  A
C619        H629   1.084       .  S
C620        C621   1.408       .  A
C621        H630   1.084       .  S
C622        C623   1.405       .  A
C622        H631   1.085       .  S
C623        C624   1.407       .  A
C624        H632   1.084       .  S
C633        C634   1.400       .  A
C633        C638   1.404       .  A
C633        H649   1.084       .  S
C634        C635   1.405       .  A
C634        H650   1.083       .  S
C635        C645   1.404       .  A
C635        C636   1.411       .  A
C636        C642   1.412       .  A
C636        C637   1.412       .  A
C637        C639   1.411       .  A
C637        C638   1.412       .  A
C638        C646   1.404       .  A
C639        C648   1.400       .  A
C639        C640   1.402       .  A
C640        C641   1.397       .  A
C640        H651   1.084       .  S
C641        C642   1.403       .  A
C641        H652   1.084       .  S
C642        C643   1.402       .  A
C643        C644   1.404       .  A
C643        H653   1.084       .  S
C644        C645   1.409       .  A
C645        H654   1.084       .  S
C646        C647   1.408       .  A
C646        H655   1.084       .  S
C647        C648   1.405       .  A
C648        H656   1.084       .  S
C657        C658   1.398       .  A
C657        C662   1.403       .  A
C657        H673   1.084       .  S
C658        C659   1.403       .  A
C658        H674   1.084       .  S
C659        C669   1.400       .  A
C659        C660   1.411       .  A
C660        C666   1.412       .  A
C660        C661   1.410       .  A
C661        C663   1.411       .  A
C661        C662   1.412       .  A
C662        C670   1.401       .  A
C663        C672   1.400       .  A
C663        C664   1.403       .  A
C664        C665   1.398       .  A
C664        H675   1.084       .  S
C665        C666   1.403       .  A
C665        H676   1.084       .  S
C666        C667   1.402       .  A
C667        C668   1.405       .  A
C667        H677   1.085       .  S
C668        C669   1.405       .  A
C669        H678   1.085       .  S
C670        C671   1.405       .  A
C670        H679   1.084       .  S
C671        C672   1.404       .  A
C672        H680   1.084       .  S
C681        C682   1.395       .  A
C681        C686   1.401       .  A
C681        H697   1.084       .  S
C682        C683   1.402       .  A
C682        H698   1.084       .  S
C683        C693   1.397       .  A
C683        C684   1.412       .  A
C684        C690   1.411       .  A
C684        C685   1.406       .  A
C685        C687   1.412       .  A
C685        C686   1.411       .  A
C686        C694   1.395       .  A
C687        C696   1.399       .  A
C687        C688   1.403       .  A
C688        C689   1.398       .  A
C688        H699   1.084       .  S
C689        C690   1.404       .  A
C689        H700   1.084       .  S
C690        C691   1.399       .  A
C691        C692   1.406       .  A
C691        H701   1.085       .  S
C692        C693   1.402       .  A
C693        H702   1.085       .  S
C694        C695   1.402       .  A
C694        H703   1.085       .  S
C695        C696   1.405       .  A
C696        H704   1.085       .  S
C705        C706   1.396       .  A
C705        C710   1.403       .  A
C705        H721   1.084       .  S
C706        C707   1.403       .  A
C706        H722   1.084       .  S
C707        C717   1.401       .  A
C707        C708   1.410       .  A
C708        C714   1.409       .  A
C708        C709   1.413       .  A
C709        C711   1.414       .  A
C709        C710   1.408       .  A
C710        C718   1.396       .  A
C711        C720   1.411       .  A
C711        C712   1.404       .  A
C712        C713   1.403       .  A
C712        H723   1.083       .  S
C713        C714   1.405       .  A
C713        H724   1.083       .  S
C714        C715   1.407       .  A
C715        C716   1.413       .  A
C715        H725   1.084       .  S
C716        C717   1.412       .  A
C717        H726   1.080       .  S
C718        C719   1.411       .  A
C718        H727   1.084       .  S
C719        C720   1.407       .  A
C720        H728   1.084       .  S
C729        C730   1.397       .  A
C729        C734   1.403       .  A
C729        H745   1.084       .  S
C730        C731   1.403       .  A
C730        H746   1.083       .  S
C731        C741   1.399       .  A
C731        C732   1.410       .  A
C732        C738   1.413       .  A
C732        C733   1.415       .  A
C733        C735   1.412       .  A
C733        C734   1.411       .  A
C734        C742   1.401       .  A
C735        C744   1.411       .  A
C735        C736   1.405       .  A
C736        C737   1.403       .  A
C736        H747   1.083       .  S
C737        C738   1.405       .  A
C737        H748   1.083       .  S
C738        C739   1.411       .  A
C739        C740   1.408       .  A
C739        H749   1.084       .  S
C740        C741   1.407       .  A
C741        H750   1.085       .  S
C742        C743   1.409       .  A
C742        H751   1.084       .  S
C743        C744   1.407       .  A
C744        H752   1.084       .  S
C753        C754   1.401       .  A
C753        C758   1.403       .  A
C753        H769   1.084       .  S
C754        C755   1.405       .  A
C754        H770   1.083       .  S
C755        C765   1.405       .  A
C755        C756   1.409       .  A
C756        C762   1.413       .  A
C756        C757   1.417       .  A
C757        C759   1.410       .  A
C757        C758   1.414       .  A
C758        C766   1.409       .  A
C759        C768   1.406       .  A
C759        C760   1.405       .  A
C760        C761   1.402       .  A
C760        H771   1.083       .  S
C761        C762   1.404       .  A
C761        H772   1.083       .  S
C762        C763   1.411       .  A
C763        C764   1.410       .  A
C763        H773   1.084       .  S
C764        C765   1.414       .  A
C765        H774   1.084       .  S
C766        C767   1.404       .  A
C766        H775   1.084       .  S
C767        C768   1.410       .  A
C768        H776   1.084       .  S
C777        C778   1.401       .  A
C777        C782   1.405       .  A
C777        H793   1.084       .  S
C778        C779   1.404       .  A
C778        H794   1.083       .  S
C779        C789   1.410       .  A
C779        C780   1.414       .  A
C780        C786   1.408       .  A
C780        C781   1.416       .  A
C781        C783   1.414       .  A
C781        C782   1.408       .  A
C782        C790   1.403       .  A
C783        C792   1.409       .  A
C783        C784   1.404       .  A
C784        C785   1.401       .  A
C784        H795   1.083       .  S
C785        C786   1.405       .  A
C785        H796   1.084       .  S
C786        C787   1.404       .  A
C787        C788   1.411       .  A
C787        H797   1.084       .  S
C788        C789   1.409       .  A
C789        H798   1.084       .  S
C790        C791   1.411       .  A
C790        H799   1.084       .  S
C791        C792   1.407       .  A
C792        H800   1.084       .  S
