geometry optimzed in LAMMPS
_audit_creation_date              2020-12-01 
_audit_creation_method            'lammps2cif' 
_symmetry_space_group_name_H-M    'P1' 
_symmetry_Int_Tables_number       1 
_symmetry_cell_setting            triclinic 
loop_ 
_symmetry_equiv_pos_as_xyz 
  x,y,z 
_cell_length_a                    57.74914353 
_cell_length_b                    57.69998525665789 
_cell_length_c                    57.67659865365379 
_cell_angle_alpha                 89.83216591798164 
_cell_angle_beta                  89.92056714863386 
_cell_angle_gamma                 89.83247873543442 
loop_ 
_atom_site_label 
_atom_site_type_symbol 
_atom_site_fract_x 
_atom_site_fract_y 
_atom_site_fract_z 
_atom_site_charge 
C1          C  0.29873682  0.87801494  0.65678209     0.43500
N2          N  0.33638093  0.87581831  0.65772976     0.02400
C3          C  0.39626881  0.82101444  0.74629204    -0.05500
H4          H  0.34486076  0.89238199  0.77299694     0.07900
C5          C  0.39391494  0.94293061  0.72542559    -0.05800
Co6        Co  0.34914967  0.84595382  0.69829973     0.74200
N7          N  0.35043389  0.87375662  0.74126774    -0.25000
Co8        Co  0.38567621  0.87266104  0.73645009     0.74100
C9          C  0.38203698  0.94342698  0.74767524     0.43600
N10         N  0.38894760  0.92247125  0.67005116     0.02000
N11         N  0.38652254  0.90828951  0.73751286     0.02100
N12         N  0.37131937  0.80397621  0.72151705    -0.45900
H13         H  0.29523782  0.85594188  0.68954455     0.07900
N14         N  0.33643320  0.86397105  0.72631183     0.02400
N15         N  0.42075639  0.87177870  0.73045577     0.02100
C16         C  0.45721551  0.86593969  0.73431432     0.43700
N17         N  0.37544877  0.91316648  0.65408625    -0.24500
C18         C  0.36013554  0.80584454  0.66789608    -0.05400
N19         N  0.31861837  0.88399412  0.64513850    -0.45600
N20         N  0.43623007  0.86072403  0.74310626    -0.45800
C21         C  0.37052804  0.80110174  0.64581638     0.43500
N22         N  0.37034820  0.82681397  0.72000704     0.02400
N23         N  0.41091388  0.87520294  0.64877362    -0.24500
N24         N  0.32873097  0.86464544  0.67622875    -0.25000
N25         N  0.42290845  0.88713896  0.66415310     0.02000
H26         H  0.42282579  0.85304441  0.62063331     0.07900
H27         H  0.46538709  0.89081974  0.70393215     0.07900
N28         N  0.38453877  0.83711409  0.73443905    -0.25000
N29         N  0.39556443  0.92036951  0.72040501    -0.24700
N30         N  0.37183848  0.83813180  0.65228772     0.02400
C31         C  0.31392385  0.87881550  0.75164413     0.43800
C32         C  0.36588343  0.93119063  0.64219006    -0.05900
N33         N  0.43011277  0.88428539  0.71388991    -0.24700
H34         H  0.40009704  0.95703970  0.71478363     0.07900
N35         N  0.31443627  0.86636016  0.73195704    -0.45900
H36         H  0.35400840  0.92953903  0.62780340     0.07900
C37         C  0.44979914  0.87196477  0.64373056     0.43600
C38         C  0.30575212  0.86507681  0.67698422    -0.05400
Co39       Co  0.37359230  0.87565969  0.65185142     0.73800
N40         N  0.38936604  0.94526480  0.66983718    -0.45600
C41         C  0.38766072  0.79902224  0.73743666     0.43900
N42         N  0.37792776  0.82187843  0.63684187    -0.45600
Co43       Co  0.40944846  0.90382209  0.69194069     0.73900
C44         C  0.45317621  0.88200023  0.71502994    -0.05900
C45         C  0.33787685  0.88356640  0.75807539    -0.05500
N46         N  0.36176699  0.82856439  0.67048551    -0.25000
N47         N  0.37815303  0.92140467  0.75425607    -0.45800
H48         H  0.40859769  0.82437789  0.75995522     0.07900
C49         C  0.42676673  0.86469633  0.63473743    -0.05900
Cl50       Cl  0.37939530  0.87456726  0.69443113    -0.48900
C51         C  0.37529993  0.95266045  0.65302542     0.43600
H52         H  0.35244197  0.79404341  0.68027810     0.07900
N53         N  0.44542300  0.88572974  0.66164148    -0.45600
C54         C  0.23570749  0.94712202  0.88143625     0.43500
N55         N  0.21314260  0.92258485  0.89745678     0.02400
C56         C  0.21165285  0.80526400  0.87594334    -0.05500
H57         H  0.20787031  0.85861050  0.80287358     0.07900
C58         C  0.13097231  0.88663315  0.82835539    -0.05800
Co59       Co  0.22679594  0.87414122  0.88740518     0.74200
N60         N  0.21211173  0.86407225  0.83950087    -0.25000
Co61       Co  0.18469553  0.84771698  0.85573497     0.74100
C62         C  0.14202219  0.87743887  0.80684106     0.43600
N63         N  0.14535378  0.91818679  0.88374935     0.02000
N64         N  0.16128348  0.86668521  0.83693037     0.02100
N65         N  0.23886455  0.82384538  0.89678027    -0.45900
H66         H  0.25920618  0.91798910  0.86715034     0.07900
N67         N  0.22832786  0.87405792  0.85187709     0.02400
N68         N  0.15766169  0.83188750  0.87212036     0.02100
C69         C  0.13585023  0.80345337  0.88225603     0.43700
N70         N  0.16279508  0.92689325  0.89573501    -0.24500
C71         C  0.23625013  0.86210765  0.93833270    -0.05400
N72         N  0.21664519  0.94503903  0.89470956    -0.45600
N73         N  0.15537397  0.80924905  0.87134775    -0.45800
C74         C  0.22679050  0.86892404  0.96071308     0.43500
N75         N  0.22414258  0.83855094  0.88725064     0.02400
N76         N  0.15847223  0.89320935  0.93132217    -0.24500
N77         N  0.22891644  0.90980754  0.88716285    -0.25000
N78         N  0.14117347  0.88217915  0.92129921     0.02000
H79         H  0.16605328  0.90428810  0.96588883     0.07900
H80         H  0.10970190  0.82907786  0.89949594     0.07900
N81         N  0.20817836  0.82824112  0.87485109    -0.25000
N82         N  0.14422628  0.87887260  0.84624966    -0.24700
N83         N  0.20861845  0.88690639  0.93365399     0.02400
C84         C  0.23980342  0.87814002  0.81694246     0.43800
C85         C  0.16245582  0.94992006  0.89474058    -0.05900
N86         N  0.14068205  0.84280076  0.88306285    -0.24700
H87         H  0.11522237  0.89661927  0.83021316     0.07900
N88         N  0.24527796  0.88251730  0.83915303    -0.45900
H89         H  0.17424171  0.96132242  0.90372780     0.07900
C90         C  0.13296451  0.88441627  0.95801387     0.43600
C91         C  0.24420987  0.92373200  0.87676453    -0.05400
Co92       Co  0.18583729  0.90754577  0.91470162     0.73800
N93         N  0.13262634  0.93524081  0.87422854    -0.45600
C94         C  0.23208088  0.80235610  0.89074443     0.43900
N95         N  0.20995390  0.88472844  0.95647918    -0.45600
Co96       Co  0.14158192  0.88051444  0.88361685     0.73900
C97         C  0.12578081  0.82598085  0.89036934    -0.05900
C98         C  0.21776350  0.86571465  0.81704484    -0.05500
N99         N  0.22402880  0.87409454  0.92282777    -0.25000
N100        N  0.16047593  0.86543779  0.81414830    -0.45800
H101        H  0.20164109  0.79247902  0.86672243     0.07900
C102        C  0.15474501  0.89549534  0.95386693    -0.05900
Cl103      Cl  0.18429121  0.87748001  0.88534529    -0.48900
C104        C  0.14290076  0.95576140  0.88041031     0.43600
H105        H  0.25061264  0.85074979  0.93431990     0.07900
N106        N  0.12532873  0.87595877  0.93714105    -0.45600
C107        C  0.38672773  0.72996582  0.80504781     0.43500
N108        N  0.36882443  0.71236997  0.83225821     0.02400
C109        C  0.38708536  0.72136746  0.94925673    -0.05500
H110        H  0.46175289  0.70129484  0.89945683     0.07900
C111        C  0.42819472  0.62884135  0.87847788    -0.05800
Co112      Co  0.38111622  0.73063519  0.87854122     0.74200
N113        N  0.42627512  0.71057011  0.89240656    -0.25000
Co114      Co  0.40589444  0.68814823  0.91173317     0.74100
C115        C  0.45037032  0.63843666  0.88778088     0.43600
N116        N  0.37354269  0.64493092  0.84565839     0.02000
N117        N  0.42181700  0.66052609  0.89680526     0.02100
N118        N  0.37125052  0.74929406  0.92675881    -0.45900
H119        H  0.40516544  0.75399975  0.83088017     0.07900
N120        N  0.41670083  0.72669797  0.87941185     0.02400
N121        N  0.38557043  0.66570295  0.93018744     0.02100
C122        C  0.37093602  0.64874642  0.95993866     0.43700
N123        N  0.36290727  0.66221838  0.83491708    -0.24500
C124        C  0.33138905  0.74872609  0.88834822    -0.05400
N125        N  0.37090641  0.71340069  0.80944325    -0.45600
N126        N  0.38461196  0.66608413  0.95300388    -0.45800
C127        C  0.30805222  0.74050644  0.88333827     0.43500
N128        N  0.38042729  0.73255173  0.91418549     0.02400
N129        N  0.32823415  0.66729764  0.86896507    -0.24500
N130        N  0.38167986  0.72772774  0.84297020    -0.25000
N131        N  0.33628862  0.64975683  0.88135719     0.02000
H132        H  0.29467877  0.67876559  0.85824004     0.07900
H133        H  0.35240406  0.62191719  0.93638175     0.07900
N134        N  0.38973301  0.71608911  0.92687983    -0.25000
N135        N  0.41121326  0.64383724  0.88532898    -0.24700
N136        N  0.33268752  0.71767444  0.86765084     0.02400
C137        C  0.45317564  0.73134813  0.87438680     0.43800
C138        C  0.36167536  0.65820831  0.81231763    -0.05900
N139        N  0.37341285  0.64885588  0.92060623    -0.24700
H140        H  0.42542783  0.61295602  0.86896999     0.07900
N141        N  0.43210327  0.73962468  0.86851561    -0.45900
H142        H  0.35341550  0.66931864  0.79961591     0.07900
C143        C  0.29881464  0.64653180  0.88094875     0.43600
C144        C  0.39366828  0.73972422  0.82723570    -0.05400
Co145      Co  0.34803808  0.68999918  0.85085176     0.73800
N146        N  0.38056784  0.62891152  0.83039832    -0.45600
C147        C  0.37450606  0.74336168  0.94914702     0.43900
N148        N  0.31020907  0.72140519  0.87012166    -0.45600
Co149      Co  0.37365195  0.64553758  0.88326168     0.73900
C150        C  0.36343232  0.63690628  0.93831314    -0.05900
C151        C  0.44935618  0.71215732  0.89052190    -0.05500
N152        N  0.34539944  0.73334326  0.87809989    -0.25000
N153        N  0.44433979  0.65788868  0.89859809    -0.45800
H154        H  0.39353689  0.71099404  0.96347202     0.07900
C155        C  0.30532845  0.66669755  0.86787151    -0.05900
Cl156      Cl  0.37718797  0.68815136  0.88107108    -0.48900
C157        C  0.37300847  0.63634775  0.80910872     0.43600
H158        H  0.33695598  0.76360448  0.89817782     0.07900
N159        N  0.31882498  0.63668216  0.88926634    -0.45600
C160        C  0.36746568  0.01316438  0.81531656     0.43500
N161        N  0.38106100  0.03683624  0.84023135     0.02400
C162        C  0.35882413  0.04468505  0.95624437    -0.05500
H163        H  0.28558600  0.05422076  0.89871927     0.07900
C164        C  0.31819297  0.12402791  0.87118481    -0.05800
Co165      Co  0.36823904  0.02497157  0.88824713     0.74200
N166        N  0.32181043  0.04509358  0.89676719    -0.25000
Co167      Co  0.34028558  0.07084666  0.91358804     0.74100
C168        C  0.29581255  0.11457204  0.88024879     0.43600
N169        N  0.37371461  0.10545837  0.84346834     0.02000
N170        N  0.32450436  0.09538077  0.89409171     0.02100
N171        N  0.37813657  0.01526853  0.93909953    -0.45900
H172        H  0.34966567  0.99151682  0.84395381     0.07900
N173        N  0.33284442  0.02767056  0.88710229     0.02400
N174        N  0.35892700  0.09646700  0.92953712     0.02100
C175        C  0.37279257  0.11630789  0.95792341     0.43700
N176        N  0.38454675  0.08685263  0.83566078    -0.24500
C177        C  0.41777978  0.00868984  0.89983929    -0.05400
N178        N  0.38092820  0.03196462  0.81791097    -0.45600
N179        N  0.35899982  0.09867125  0.95224823    -0.45800
C180        C  0.44085480  0.01574305  0.89257526     0.43500
N181        N  0.36782968  0.02876027  0.92371262     0.02400
N182        N  0.41906372  0.08800389  0.87061917    -0.24500
N183        N  0.36897050  0.02210564  0.85264524    -0.25000
N184        N  0.41048551  0.10697234  0.88010996     0.02000
H185        H  0.45284751  0.07565369  0.86209617     0.07900
H186        H  0.39317068  0.13973622  0.93200127     0.07900
N187        N  0.35672396  0.04616502  0.93329250    -0.25000
N188        N  0.33522959  0.11090807  0.88110554    -0.24700
N189        N  0.41602418  0.03800261  0.87659042     0.02400
C190        C  0.29730798  0.02149658  0.87895025     0.43800
C191        C  0.38465767  0.08662659  0.81270526    -0.05900
N192        N  0.37184392  0.11186060  0.91846426    -0.24700
H193        H  0.32099909  0.13848111  0.85953290     0.07900
N194        N  0.31893888  0.01317787  0.87642055    -0.45900
H195        H  0.39340553  0.07383353  0.80216969     0.07900
C196        C  0.44801645  0.11099467  0.87924892     0.43600
C197        C  0.35960310  0.00640689  0.83847599    -0.05400
Co198      Co  0.40027074  0.06242216  0.85574331     0.73800
N199        N  0.36588829  0.11842988  0.82581005    -0.45600
C200        C  0.37350787  0.02462123  0.95998597     0.43900
N201        N  0.43843150  0.03378495  0.87791991    -0.45600
Co202      Co  0.37286963  0.11020826  0.88073262     0.73900
C203        C  0.38149851  0.12544638  0.93519647    -0.05900
C204        C  0.29904452  0.04257269  0.89287234    -0.05500
N205        N  0.40364681  0.02345491  0.88896501    -0.25000
N206        N  0.30186252  0.09709541  0.89406543    -0.45800
H207        H  0.35094065  0.05633715  0.96866901     0.07900
C208        C  0.44195970  0.08889067  0.86963370    -0.05900
Cl209      Cl  0.37046420  0.06753314  0.88458122    -0.48900
C210        C  0.37202223  0.10701400  0.80586585     0.43600
H211        H  0.41242470  0.99413952  0.91038934     0.07900
N212        N  0.42763324  0.12154113  0.88579130    -0.45600
C213        C  0.29982340  0.87835869  0.02277180     0.43500
N214        N  0.32505601  0.89483988  0.04393897     0.02400
C215        C  0.44204147  0.87212862  0.04575970    -0.05500
H216        H  0.38933991  0.80035576  0.05130765     0.07900
C217        C  0.36040740  0.82761087  0.12631509    -0.05800
Co218      Co  0.37321849  0.88387595  0.02934344     0.74200
N219        N  0.38316123  0.83646448  0.04573378    -0.25000
Co220      Co  0.40005449  0.85316521  0.07245422     0.74100
C221        C  0.36825723  0.80574192  0.11485885     0.43600
N222        N  0.33146545  0.88341198  0.11196856     0.02000
N223        N  0.38123054  0.83542326  0.09645268     0.02100
N224        N  0.42437278  0.89258532  0.01738473    -0.45900
H225        H  0.32781984  0.86246892  0.99909981     0.07900
N226        N  0.37299599  0.84825551  0.02909937     0.02400
N227        N  0.41679646  0.86982372  0.09867408     0.02100
C228        C  0.44589661  0.88015118  0.11947880     0.43700
N229        N  0.32213719  0.89523119  0.09464185    -0.24500
C230        C  0.38545825  0.93483238  0.01868227    -0.05400
N231        N  0.30249747  0.89228609  0.04120392    -0.45600
N232        N  0.43945568  0.86863403  0.10054966    -0.45800
C233        C  0.37901980  0.95723639  0.02842494     0.43500
N234        N  0.40913884  0.88333786  0.03181835     0.02400
N235        N  0.35608196  0.93019298  0.09645867    -0.24500
N236        N  0.33733253  0.88388745  0.02814554    -0.25000
N237        N  0.36783246  0.92074976  0.11371212     0.02000
H238        H  0.34550513  0.96462616  0.08725099     0.07900
H239        H  0.42113364  0.89868126  0.14556017     0.07900
N240        N  0.41909471  0.87127840  0.04840177    -0.25000
N241        N  0.36941542  0.84526658  0.11343141    -0.24700
N242        N  0.36085314  0.93051916  0.04650012     0.02400
C243        C  0.36868274  0.81280303  0.01920635     0.43800
C244        C  0.29917354  0.89513377  0.09628425    -0.05900
N245        N  0.40646576  0.88153967  0.11543200    -0.24700
H246        H  0.34980293  0.82970761  0.14164175     0.07900
N247        N  0.36428735  0.83487117  0.01281197    -0.45900
H248        H  0.28728838  0.90391740  0.08470688     0.07900
C249        C  0.36706074  0.95802880  0.11959657     0.43600
C250        C  0.32283822  0.87296839  0.01378151    -0.05400
Co251      Co  0.34084059  0.91278273  0.07029521     0.73800
N252        N  0.31503919  0.87428825  0.12556937    -0.45600
C253        C  0.44559239  0.88650078  0.02532011     0.43900
N254        N  0.36340254  0.95321895  0.04530637    -0.45600
Co255      Co  0.36886326  0.88283395  0.11491448     0.73900
C256        C  0.42371070  0.88892200  0.12977390    -0.05900
C257        C  0.38153159  0.81387865  0.04102671    -0.05500
N258        N  0.37340357  0.91944135  0.03104501    -0.25000
N259        N  0.38103936  0.81264146  0.09684054    -0.45800
H260        H  0.45435594  0.86308529  0.05639288     0.07900
C261        C  0.35449239  0.95296617  0.09889697    -0.05900
Cl262      Cl  0.37075809  0.88317002  0.07196313    -0.48900
C263        C  0.29431709  0.88145390  0.11654153     0.43600
H264        H  0.39696928  0.93075860  0.00446581     0.07900
N265        N  0.37540494  0.93731459  0.12811355    -0.45600
C266        C  0.51874240  0.80275525  0.87329249     0.43500
N267        N  0.53729219  0.82898124  0.89169499     0.02400
C268        C  0.53267196  0.94660375  0.87555535    -0.05500
H269        H  0.54989036  0.89813209  0.80028689     0.07900
C270        C  0.61998039  0.87052830  0.83205321    -0.05800
Co271      Co  0.52054058  0.87627673  0.88058299     0.74200
N272        N  0.54041456  0.89056561  0.83557505    -0.25000
Co273      Co  0.56394143  0.90812562  0.85583461     0.74100
C274        C  0.60990376  0.87985960  0.81001985     0.43600
N275        N  0.60511391  0.83979793  0.88691600     0.02000
N276        N  0.59043715  0.89194451  0.83926007     0.02100
N277        N  0.50405593  0.92511035  0.89157526    -0.45900
H278        H  0.49521339  0.83007814  0.85580832     0.07900
N279        N  0.52389493  0.87805626  0.84497493     0.02400
N280        N  0.58747753  0.92526301  0.87565319     0.02100
C281        C  0.60655926  0.95434617  0.88851619     0.43700
N282        N  0.58737103  0.82968062  0.89727377    -0.24500
C283        C  0.50318205  0.88550380  0.93035267    -0.05400
N284        N  0.53567960  0.80629308  0.88895621    -0.45600
N285        N  0.58817415  0.94805374  0.87607514    -0.45800
C286        C  0.51124931  0.87970016  0.95356475     0.43500
N287        N  0.52026851  0.91195891  0.88219802     0.02400
N288        N  0.58395983  0.86367500  0.93246020    -0.24500
N289        N  0.52208987  0.84054612  0.87924265    -0.25000
N290        N  0.60174782  0.87564904  0.92437906     0.02000
H291        H  0.57168454  0.85454920  0.96633287     0.07900
H292        H  0.63354671  0.92981875  0.90585243     0.07900
N293        N  0.53708217  0.92408091  0.87278150    -0.25000
N294        N  0.60660487  0.87926646  0.84945308    -0.24700
N295        N  0.53351972  0.86370260  0.92868998     0.02400
C296        C  0.51907877  0.87415483  0.80843174     0.43800
C297        C  0.59004706  0.80687172  0.89756269    -0.05900
N298        N  0.60449244  0.91497014  0.88708363    -0.24700
H299        H  0.63481608  0.85929810  0.83443377     0.07900
N300        N  0.51058976  0.86801619  0.82937526    -0.45900
H301        H  0.57834577  0.79453906  0.90545762     0.07900
C302        C  0.60336190  0.87754749  0.96189716     0.43600
C303        C  0.50947067  0.82552080  0.86706041    -0.05400
Co304      Co  0.56050200  0.84633959  0.91271832     0.73800
N305        N  0.62034027  0.82390514  0.87941649    -0.45600
C306        C  0.51099554  0.94712343  0.88829674     0.43900
N307        N  0.52985051  0.86573337  0.95125369    -0.45600
Co308      Co  0.60587772  0.87738427  0.88696971     0.73900
C309        C  0.61789705  0.93225760  0.89584144    -0.05900
C310        C  0.53867773  0.88941995  0.81248487    -0.05500
N311        N  0.51817932  0.87500952  0.91619701    -0.25000
N312        N  0.59193339  0.89273430  0.81657118    -0.45800
H313        H  0.54300381  0.96074885  0.86893464     0.07900
C314        C  0.58386415  0.86370519  0.95541759    -0.05900
Cl315      Cl  0.56312144  0.87699392  0.88405161    -0.48900
C316        C  0.61155724  0.80283341  0.88598752     0.43600
H317        H  0.48859914  0.89598330  0.92494639     0.07900
N318        N  0.61425619  0.88436644  0.94186376    -0.45600
C319        C  0.87072551  0.30962169  0.74533287     0.43500
N320        N  0.86636987  0.34510631  0.73637533     0.02400
C321        C  0.82360854  0.38938036  0.63395598    -0.05500
H322        H  0.89750639  0.32681336  0.62702154     0.07900
C323        C  0.94493587  0.39201860  0.67605546    -0.05800
Co324      Co  0.84199539  0.35118882  0.69170106     0.74200
N325        N  0.87573741  0.34285867  0.65328310    -0.25000
Co326      Co  0.87701459  0.38055154  0.65179077     0.74100
C327        C  0.95197224  0.37998049  0.65545068     0.43600
N328        N  0.91588036  0.39024505  0.72593017     0.02000
N329        N  0.91432701  0.38099423  0.65708156     0.02100
N330        N  0.80516576  0.36764235  0.66061484    -0.45900
H331        H  0.85107480  0.29753693  0.71292152     0.07900
N332        N  0.86222100  0.33322712  0.66913163     0.02400
N333        N  0.87809505  0.41809102  0.65346651     0.02100
C334        C  0.87828083  0.45536016  0.64805589     0.43700
N335        N  0.90237347  0.37948996  0.74076854    -0.24500
C336        C  0.79904701  0.37301478  0.71553373    -0.05400
N337        N  0.87500788  0.33133494  0.75245367    -0.45600
N338        N  0.87151453  0.43468850  0.63852816    -0.45800
C339        C  0.79519724  0.38749091  0.73593203     0.43500
N340        N  0.82765271  0.36808728  0.66425012     0.02400
N341        N  0.86778784  0.41597240  0.73648332    -0.24500
N342        N  0.85661248  0.33379835  0.71927720    -0.25000
N343        N  0.88127801  0.42708428  0.72191913     0.02000
H344        H  0.84537920  0.42703710  0.76413286     0.07900
H345        H  0.89647537  0.46172977  0.68254227     0.07900
N346        N  0.83952022  0.38024811  0.64884805    -0.25000
N347        N  0.92199540  0.39176772  0.67572257    -0.24700
N348        N  0.83158876  0.38143270  0.73170265     0.02400
C349        C  0.87626549  0.30328145  0.65214132     0.43800
C350        C  0.91546766  0.36955051  0.75713313    -0.05900
N351        N  0.88808843  0.42728839  0.67186486    -0.24700
H352        H  0.95538144  0.40102108  0.68868353     0.07900
N353        N  0.86202685  0.31046272  0.66884763    -0.45900
H354        H  0.90900089  0.36025298  0.77207719     0.07900
C355        C  0.86515877  0.45375094  0.74187133     0.43600
C356        C  0.85810471  0.31108526  0.72358028    -0.05400
Co357      Co  0.86691477  0.38049380  0.73680980     0.73800
N358        N  0.93801886  0.38859444  0.73137945    -0.45600
C359        C  0.80067723  0.38041046  0.64184992     0.43900
N360        N  0.81623749  0.39183054  0.74505724    -0.45600
Co361      Co  0.90193420  0.40915697  0.69887362     0.73900
C362        C  0.88894246  0.45015721  0.66994899    -0.05900
C363        C  0.88553027  0.32497502  0.64134000    -0.05500
N364        N  0.82200708  0.37017851  0.71445357    -0.25000
N365        N  0.93212537  0.37375804  0.64395252    -0.45800
H366        H  0.82748597  0.40026234  0.61916953     0.07900
C367        C  0.85684190  0.43128721  0.74990846    -0.05900
Cl368      Cl  0.87201254  0.38035435  0.69434801    -0.48900
C369        C  0.93919792  0.37547432  0.75071494     0.43600
H370        H  0.78672275  0.36536572  0.70374980     0.07900
N371        N  0.88060668  0.44976743  0.72481051    -0.45600
C372        C  0.87518496  0.24221433  0.81617725     0.43500
N373        N  0.86052564  0.21858881  0.84045303     0.02400
C374        C  0.88228715  0.21423294  0.95731858    -0.05500
H375        H  0.95458824  0.20847503  0.90589302     0.07900
C376        C  0.92539761  0.13422292  0.87478112    -0.05800
Co377      Co  0.87105326  0.23165618  0.88887039     0.74200
N378        N  0.91832755  0.21428105  0.89903914    -0.25000
Co379      Co  0.90042798  0.18752060  0.91509414     0.74100
C380        C  0.94701947  0.14397459  0.88478226     0.43600
N381        N  0.87032689  0.14989837  0.84449018     0.02000
N382        N  0.91782119  0.16335775  0.89657447     0.02100
N383        N  0.86253072  0.24321547  0.93986780    -0.45900
H384        H  0.89059687  0.26469890  0.84531120     0.07900
N385        N  0.90693946  0.23134727  0.88899268     0.02400
N386        N  0.88227259  0.16174304  0.93070057     0.02100
C387        C  0.86725490  0.14307942  0.95907272     0.43700
N388        N  0.85961314  0.16819096  0.83567558    -0.24500
C389        C  0.81972484  0.24277841  0.90054862    -0.05400
N390        N  0.86206656  0.22310183  0.81808892    -0.45600
N391        N  0.88095895  0.16069774  0.95340488    -0.45800
C392        C  0.79739257  0.23343251  0.89336554     0.43500
N393        N  0.87113018  0.22852640  0.92456480     0.02400
N394        N  0.82370059  0.16554278  0.86924124    -0.24500
N395        N  0.87130396  0.23389742  0.85331585    -0.25000
N396        N  0.83289213  0.14795630  0.88068071     0.02000
H397        H  0.78919725  0.17517487  0.85909204     0.07900
H398        H  0.84870865  0.11796002  0.93365759     0.07900
N399        N  0.88280350  0.21162242  0.93436014    -0.25000
N400        N  0.90788829  0.14729428  0.88365634    -0.24700
N401        N  0.82436250  0.21537302  0.87558502     0.02400
C402        C  0.94255720  0.24121738  0.88619592     0.43800
C403        C  0.86015644  0.16763671  0.81262834    -0.05900
N404        N  0.87024341  0.14565922  0.91976551    -0.24700
H405        H  0.92333437  0.11936972  0.86359124     0.07900
N406        N  0.92071109  0.24787829  0.88119279    -0.45900
H407        H  0.85190183  0.17996207  0.80115383     0.07900
C408        C  0.79576553  0.14229217  0.88003185     0.43600
C409        C  0.88116993  0.24964102  0.83953216    -0.05400
Co410      Co  0.84200176  0.19202205  0.85504981     0.73800
N411        N  0.87833106  0.13615502  0.82753144    -0.45600
C412        C  0.86860185  0.23511353  0.96104305     0.43900
N413        N  0.80165648  0.21678594  0.87764850    -0.45600
Co414      Co  0.87039233  0.14637809  0.88214937     0.73900
C415        C  0.86007705  0.13251725  0.93661258    -0.05900
C416        C  0.94103876  0.21894909  0.89823954    -0.05500
N417        N  0.83532849  0.23042298  0.88864879    -0.25000
N418        N  0.94051400  0.16185853  0.89776777    -0.45800
H419        H  0.89130101  0.20322562  0.96950864     0.07900
C420        C  0.80088001  0.16325592  0.86771061    -0.05900
Cl421      Cl  0.87103009  0.18919359  0.88520280    -0.48900
C422        C  0.87245058  0.14670890  0.80700376     0.43600
H423        H  0.82360144  0.25671851  0.91237529     0.07900
N424        N  0.81632947  0.13354190  0.88818252    -0.45600
C425        C  0.74165713  0.44190184  0.87375945     0.43500
N426        N  0.71919629  0.41802435  0.89100446     0.02400
C427        C  0.70609204  0.30178586  0.87591099    -0.05500
H428        H  0.69827924  0.35611526  0.79881009     0.07900
C429        C  0.63129940  0.39000348  0.83152809    -0.05800
Co430      Co  0.72950539  0.36918785  0.88034699     0.74200
N431        N  0.70851932  0.35928773  0.83463920    -0.25000
Co432      Co  0.68220871  0.34486601  0.85402882     0.74100
C433        C  0.63967029  0.38004524  0.80915786     0.43600
N434        N  0.65047961  0.41746174  0.88617349     0.02000
N435        N  0.65837392  0.36515333  0.83766703     0.02100
N436        N  0.73659696  0.31878602  0.89337106    -0.45900
H437        H  0.76248138  0.41207916  0.85691217     0.07900
N438        N  0.72661844  0.36855537  0.84476741     0.02400
N439        N  0.65612840  0.33094981  0.87291265     0.02100
C440        C  0.63457404  0.30377173  0.88610053     0.43700
N441        N  0.66945932  0.42508719  0.89634968    -0.24500
C442        C  0.74618322  0.35897490  0.93039833    -0.05400
N443        N  0.72362030  0.44025694  0.88843840    -0.45600
N444        N  0.65248842  0.30851752  0.87242126    -0.45800
C445        C  0.73967532  0.36717054  0.95340792     0.43500
N446        N  0.72394035  0.33400971  0.88189321     0.02400
N447        N  0.66785088  0.39071277  0.93170379    -0.24500
N448        N  0.73338186  0.40473702  0.87913210    -0.25000
N449        N  0.64845917  0.38177840  0.92358408     0.02000
H450        H  0.68068121  0.39955773  0.96512079     0.07900
H451        H  0.61281390  0.33043226  0.90729358     0.07900
N452        N  0.70596116  0.32460195  0.87165263    -0.25000
N453        N  0.64387048  0.37929468  0.84844835    -0.24700
N454        N  0.71784290  0.38331812  0.92809801     0.02400
C455        C  0.73217322  0.37447371  0.80867811     0.43800
C456        C  0.66943132  0.44813455  0.89706929    -0.05900
N457        N  0.64147745  0.34276529  0.88600517    -0.24700
H458        H  0.61783633  0.40274464  0.83440154     0.07900
N459        N  0.74126851  0.37784863  0.82987302    -0.45900
H460        H  0.68258005  0.45870378  0.90511315     0.07900
C461        C  0.64449814  0.38389240  0.96109527     0.43600
C462        C  0.74841700  0.41821796  0.86767111    -0.05400
Co463      Co  0.69368895  0.40431131  0.91185731     0.73800
N464        N  0.63702032  0.43518277  0.87945208    -0.45600
C465        C  0.72617308  0.29813464  0.89071159     0.43900
N466        N  0.72226016  0.38252660  0.95056334    -0.45600
Co467      Co  0.64477468  0.38038906  0.88611754     0.73900
C468        C  0.62708759  0.32667739  0.89572097    -0.05900
C469        C  0.71060664  0.36182658  0.81164248    -0.05500
N470        N  0.73171537  0.36996350  0.91596348    -0.25000
N471        N  0.65627328  0.36502589  0.81497554    -0.45800
H472        H  0.69355584  0.28937264  0.86976085     0.07900
C473        C  0.66707788  0.39228750  0.95460982    -0.05900
Cl474      Cl  0.68713608  0.37474695  0.88311822    -0.48900
C475        C  0.64812464  0.45505488  0.88608449     0.43600
H476        H  0.76009896  0.34748834  0.92525897     0.07900
N477        N  0.63367059  0.37731588  0.94096241    -0.45600
C478        C  0.00817444  0.31507393  0.88995260     0.43500
N479        N  0.03342757  0.33891988  0.90263648     0.02400
C480        C  0.04212045  0.45535559  0.87852985    -0.05500
H481        H  0.04113173  0.40081029  0.80595838     0.07900
C482        C  0.11589839  0.36880958  0.83092694    -0.05800
Co483      Co  0.02152572  0.38781535  0.89103695     0.74200
N484        N  0.03647899  0.39609851  0.84269253    -0.25000
Co485      Co  0.06480655  0.41138226  0.85774906     0.74100
C486        C  0.10440951  0.37701366  0.80911527     0.43600
N487        N  0.10202899  0.34137626  0.88913083     0.02000
N488        N  0.08691899  0.39068161  0.83920211     0.02100
N489        N  0.01394557  0.43943378  0.90051275    -0.45900
H490        H  0.98608446  0.34462321  0.87440647     0.07900
N491        N  0.01978202  0.38711516  0.85532540     0.02400
N492        N  0.09264445  0.42675153  0.87253498     0.02100
C493        C  0.11526978  0.45512435  0.88065400     0.43700
N494        N  0.08449800  0.33344725  0.90161393    -0.24500
C495        C  0.01179873  0.40005634  0.94238899    -0.05400
N496        N  0.02806406  0.31662340  0.90210886    -0.45600
N497        N  0.09562996  0.44914609  0.87026862    -0.45800
C498        C  0.02116389  0.39259439  0.96473250     0.43500
N499        N  0.02639552  0.42337912  0.88990630     0.02400
N500        N  0.08912743  0.36873110  0.93483144    -0.24500
N501        N  0.01800158  0.35207238  0.89209402    -0.25000
N502        N  0.10669863  0.37898427  0.92427373     0.02000
H503        H  0.08059662  0.36074277  0.97015893     0.07900
H504        H  0.14077817  0.42981122  0.89936810     0.07900
N505        N  0.04289650  0.43224826  0.87694210    -0.25000
N506        N  0.10368626  0.37828326  0.84881391    -0.24700
N507        N  0.03934618  0.37527459  0.93739348     0.02400
C508        C  0.00856503  0.38287520  0.82040211     0.43800
C509        C  0.08595610  0.31055048  0.90395329    -0.05900
N510        N  0.10930293  0.41599890  0.88396031    -0.24700
H511        H  0.13109102  0.35797608  0.83283555     0.07900
N512        N  0.00258302  0.37901419  0.84267461    -0.45900
H513        H  0.07442661  0.29988571  0.91419957     0.07900
C514        C  0.11363216  0.38000935  0.96115544     0.43600
C515        C  0.00133513  0.33857893  0.88348465    -0.05400
Co516      Co  0.06156230  0.35390396  0.91909376     0.73800
N517        N  0.11568263  0.32394893  0.88218970    -0.45600
C518        C  0.02307016  0.46011133  0.89439482     0.43900
N519        N  0.03792994  0.37695096  0.96019222    -0.45600
Co520      Co  0.10664441  0.37858809  0.88653240     0.73900
C521        C  0.12476151  0.43279688  0.89011838    -0.05900
C522        C  0.03092146  0.39438957  0.82030732    -0.05500
N523        N  0.02413797  0.38839007  0.92663684    -0.25000
N524        N  0.08691133  0.39043539  0.81633389    -0.45800
H525        H  0.05325841  0.46718524  0.86944276     0.07900
C526        C  0.09216655  0.36843339  0.95756821    -0.05900
Cl527      Cl  0.06383600  0.38281770  0.88853530    -0.48900
C528        C  0.10651547  0.30408607  0.89141749     0.43600
H529        H  0.99738653  0.41144052  0.93856987     0.07900
N530        N  0.12208977  0.38657596  0.93988513    -0.45600
C531        C  0.80970402  0.36929592  0.02228172     0.43500
N532        N  0.83376090  0.38635379  0.04455615     0.02400
C533        C  0.95097096  0.36999780  0.05449781    -0.05500
H534        H  0.89770346  0.29334989  0.06281158     0.07900
C535        C  0.86481102  0.32549939  0.13149409    -0.05800
Co536      Co  0.88263906  0.37551440  0.03357597     0.74200
N537        N  0.89357559  0.32952689  0.05390502    -0.25000
Co538      Co  0.90868637  0.34888259  0.08008055     0.74100
C539        C  0.87515507  0.30334428  0.12294253     0.43600
N540        N  0.83629587  0.37996274  0.11327939     0.02000
N541        N  0.88939164  0.33222728  0.10438814     0.02100
N542        N  0.93297005  0.38775775  0.02451249    -0.45900
H543        H  0.83910407  0.35204935  0.00140591     0.07900
N544        N  0.88364531  0.34008441  0.03628772     0.02400
N545        N  0.92297022  0.36817063  0.10594057     0.02100
C546        C  0.94984010  0.38376339  0.12610558     0.43700
N547        N  0.82827640  0.39032488  0.09447962    -0.24500
C548        C  0.89274262  0.42555925  0.01755695    -0.05400
N549        N  0.81144937  0.38416873  0.04011186    -0.45600
N550        N  0.94553837  0.36911723  0.10882778    -0.45800
C551        C  0.88509552  0.44856009  0.02469247     0.43500
N552        N  0.91807870  0.37685120  0.03801446     0.02400
N553        N  0.86182338  0.42634236  0.09603749    -0.24500
N554        N  0.84691006  0.37429675  0.03038208    -0.25000
N555        N  0.87175361  0.41795106  0.11490040     0.02000
H556        H  0.85307367  0.46026260  0.08376193     0.07900
H557        H  0.92274951  0.40442017  0.14771317     0.07900
N558        N  0.92809671  0.36645817  0.05568674    -0.25000
N559        N  0.87519469  0.34271340  0.11904923    -0.24700
N560        N  0.86849977  0.42314110  0.04593133     0.02400
C561        C  0.87819571  0.30418271  0.02958034     0.43800
C562        C  0.80535985  0.38963603  0.09405366    -0.05900
N563        N  0.91095060  0.38113713  0.12056227    -0.24700
H564        H  0.85200971  0.32802610  0.14497685     0.07900
N565        N  0.87437961  0.32565092  0.02135145    -0.45900
H566        H  0.79456651  0.39781994  0.08109500     0.07900
C567        C  0.87105631  0.45548918  0.11874184     0.43600
C568        C  0.83325426  0.36288047  0.01553398    -0.05400
Co569      Co  0.84801151  0.40668612  0.07020876     0.73800
N570        N  0.81884413  0.37182549  0.12629711    -0.45600
C571        C  0.95401128  0.38448812  0.03403714     0.43900
N572        N  0.86975830  0.44567827  0.04209576    -0.45600
Co573      Co  0.87346202  0.38045084  0.11830390     0.73900
C574        C  0.92676096  0.39228265  0.13402158    -0.05900
C575        C  0.89133346  0.30653221  0.05110433    -0.05500
N576        N  0.88160492  0.41107346  0.03176394    -0.25000
N577        N  0.88994343  0.30951362  0.10630197    -0.45800
H578        H  0.96376544  0.36347159  0.06656996     0.07900
C579        C  0.86068058  0.44931259  0.09692882    -0.05900
Cl580      Cl  0.87815586  0.37787890  0.07592274    -0.48900
C581        C  0.79882729  0.37711469  0.11459277     0.43600
H582        H  0.90418730  0.42042115  0.00363180     0.07900
N583        N  0.87793776  0.43517145  0.12916240    -0.45600
C584        C  0.87139203  0.51981803  0.81175650     0.43500
N585        N  0.88902548  0.53992707  0.83700838     0.02400
C586        C  0.86854760  0.53939514  0.95411893    -0.05500
H587        H  0.79471718  0.54512333  0.89957334     0.07900
C588        C  0.82097861  0.61997368  0.87348061    -0.05800
Co589      Co  0.87899330  0.52413394  0.88490321     0.74200
N590        N  0.83127488  0.53931645  0.89533344    -0.25000
Co591      Co  0.84749045  0.56604342  0.91260367     0.74100
C592        C  0.79934892  0.60812991  0.88100032     0.43600
N593        N  0.87663057  0.60750013  0.84420905     0.02000
N594        N  0.82904471  0.58990940  0.89402168     0.02100
N595        N  0.88921626  0.51183108  0.93547706    -0.45900
H596        H  0.85658551  0.49515962  0.83937418     0.07900
N597        N  0.84336844  0.52306019  0.88493035     0.02400
N598        N  0.86370697  0.59242685  0.92947431     0.02100
C599        C  0.87435934  0.61319820  0.95837623     0.43700
N600        N  0.88847349  0.59031564  0.83474057    -0.24500
C601        C  0.93024149  0.51462525  0.89703636    -0.05400
N602        N  0.88560125  0.53799072  0.81446897    -0.45600
N603        N  0.86293919  0.59412632  0.95219335    -0.45800
C604        C  0.95235479  0.52516289  0.89103027     0.43500
N605        N  0.87883335  0.52600792  0.92073417     0.02400
N606        N  0.92363912  0.59262622  0.86846496    -0.24500
N607        N  0.87847442  0.52376236  0.84912914    -0.25000
N608        N  0.91372933  0.60942856  0.88045165     0.02000
H609        H  0.95829084  0.58503000  0.85731005     0.07900
H610        H  0.89220957  0.63952447  0.93337990     0.07900
N611        N  0.86658037  0.54212035  0.93119750    -0.25000
N612        N  0.83866066  0.60717789  0.88238820    -0.24700
N613        N  0.92534076  0.54244710  0.87247631     0.02400
C614        C  0.80816590  0.51371836  0.87880977     0.43800
C615        C  0.88811070  0.59199588  0.81179732    -0.05900
N616        N  0.87502974  0.60940607  0.91906817    -0.24700
H617        H  0.82291647  0.63547548  0.86307031     0.07900
N618        N  0.83025939  0.50726804  0.87495706    -0.45900
H619        H  0.89703510  0.58066252  0.79980908     0.07900
C620        C  0.95055161  0.61683561  0.87919541     0.43600
C621        C  0.86698118  0.50996964  0.83457939    -0.05400
Co622      Co  0.90675907  0.56620846  0.85299553     0.73800
N623        N  0.86759312  0.62134328  0.82786501    -0.45600
C624        C  0.88373378  0.51940365  0.95692548     0.43900
N625        N  0.94807006  0.54197314  0.87533033    -0.45600
Co626      Co  0.87602789  0.60961558  0.88163759     0.73900
C627        C  0.88263414  0.62367356  0.93615686    -0.05900
C628        C  0.80875636  0.53483360  0.89262208    -0.05500
N629        N  0.91460495  0.52658628  0.88485086    -0.25000
N630        N  0.80623276  0.58996793  0.89367043    -0.45800
H631        H  0.86003374  0.54988285  0.96703637     0.07900
C632        C  0.94625028  0.59601676  0.86659427    -0.05900
Cl633      Cl  0.87733337  0.56671286  0.88308198    -0.48900
C634        C  0.87441372  0.61221057  0.80706670     0.43600
H635        H  0.92651113  0.50037350  0.90863831     0.07900
N636        N  0.92974614  0.62438382  0.88799901    -0.45600
C637        C  0.79382860  0.87613146  0.15206868     0.43500
N638        N  0.83118745  0.87545351  0.15571268     0.02400
C639        C  0.88675535  0.82358242  0.24816839    -0.05500
H640        H  0.82857269  0.89426612  0.26874134     0.07900
C641        C  0.88076369  0.94472325  0.22586623    -0.05800
Co642      Co  0.84199910  0.84503492  0.19647671     0.74200
N643        N  0.83793732  0.87374202  0.23901340    -0.25000
Co644      Co  0.87360919  0.87441415  0.23754522     0.74100
C645        C  0.86737437  0.94572578  0.24725206     0.43600
N646        N  0.88074893  0.92397065  0.17124046     0.02000
N647        N  0.87277608  0.91022251  0.23799781     0.02100
N648        N  0.86571041  0.80462161  0.22120290    -0.45900
H649        H  0.78851949  0.85263783  0.18344555     0.07900
N650        N  0.82575071  0.86242212  0.22350793     0.02400
N651        N  0.90934467  0.87538286  0.23522886     0.02100
C652        C  0.94570923  0.87265966  0.24234280     0.43700
N653        N  0.86876048  0.91427159  0.15437589    -0.24500
C654        C  0.85685653  0.80586506  0.16508762    -0.05400
N655        N  0.81407813  0.88424756  0.14268546    -0.45600
N656        N  0.92445981  0.86650993  0.25000733    -0.45800
C657        C  0.86858094  0.80278648  0.14327730     0.43500
N658        N  0.86256915  0.82731984  0.21995758     0.02400
N659        N  0.90626109  0.87810897  0.15145491    -0.24500
N660        N  0.82265501  0.86280030  0.17286336    -0.34600
N661        N  0.91656748  0.88956533  0.16832793     0.02000
H662        H  0.92111004  0.86021668  0.12176895     0.07900
H663        H  0.95459897  0.89543170  0.21060487     0.07900
N664        N  0.87453000  0.83869861  0.23561238    -0.25000
N665        N  0.88300978  0.92211932  0.22150141    -0.24700
N666        N  0.86837818  0.83933662  0.15198090     0.02400
C667        C  0.80046205  0.87790259  0.24581222     0.43800
C668        C  0.85944810  0.93195452  0.14177278    -0.05900
N669        N  0.91928227  0.88737026  0.21861360    -0.24700
H670        H  0.88801848  0.95842464  0.21539529     0.07900
N671        N  0.80316923  0.86414250  0.22712590    -0.45900
H672        H  0.84876387  0.92994957  0.12652434     0.07900
C673        C  0.94576221  0.87860830  0.14791885     0.43600
C674        C  0.79971833  0.86216028  0.17180981    -0.05400
Co675      Co  0.86863499  0.87685120  0.15211245     0.73800
N676        N  0.88028045  0.94679312  0.17109734    -0.45600
C677        C  0.88121718  0.80100902  0.23831494     0.43900
N678        N  0.87588911  0.82418875  0.13610440    -0.45600
Co679      Co  0.89993186  0.90579309  0.19479399     0.73900
C680        C  0.94221580  0.88653409  0.22143479    -0.05900
C681        C  0.82349922  0.88403537  0.25394796    -0.05500
N682        N  0.85763599  0.82855101  0.16915582    -0.25000
N683        N  0.86332962  0.92364710  0.25391814    -0.45800
H684        H  0.89786107  0.82799269  0.26254574     0.07900
C685        C  0.92360093  0.87020229  0.13741217    -0.05900
Cl686      Cl  0.87100573  0.87544745  0.19485352    -0.48900
C687        C  0.86714831  0.95370445  0.15332202     0.43600
H688        H  0.84863376  0.79304134  0.17605885     0.07900
N689        N  0.93924212  0.89022583  0.16676081    -0.45600
C690        C  0.87962736  0.73422622  0.30619728     0.43500
N691        N  0.86143021  0.71578412  0.33266457     0.02400
C692        C  0.88116569  0.72067674  0.44939355    -0.05500
H693        H  0.95573417  0.71132562  0.39825823     0.07900
C694        C  0.92904419  0.63560865  0.37490760    -0.05800
Co695      Co  0.87259542  0.73352236  0.37954388     0.74200
N696        N  0.91965286  0.71722369  0.39121957    -0.25000
Co697      Co  0.90250590  0.69203805  0.40989245     0.74100
C698        C  0.95070485  0.64722635  0.38316783     0.43600
N699        N  0.87229103  0.64856576  0.34360816     0.02000
N700        N  0.92060368  0.66684516  0.39315517     0.02100
N701        N  0.86181154  0.74812177  0.42917395    -0.45900
H702        H  0.89554992  0.75924863  0.33280903     0.07900
N703        N  0.90842661  0.73335728  0.37965784     0.02400
N704        N  0.88573027  0.66690201  0.42841927     0.02100
C705        C  0.87519099  0.64732528  0.45846484     0.43700
N706        N  0.86010280  0.66539072  0.33386133    -0.24500
C707        C  0.82175567  0.74686544  0.39027506    -0.05400
N708        N  0.86465913  0.71672421  0.30994048    -0.45600
N709        N  0.88662981  0.66610446  0.45123316    -0.45800
C710        C  0.79911948  0.73729268  0.38471027     0.43500
N711        N  0.87250960  0.73341330  0.41529650     0.02400
N712        N  0.82588981  0.66591785  0.36871821    -0.24500
N713        N  0.87283681  0.73194942  0.34384790    -0.25000
N714        N  0.83570481  0.64899041  0.38074465     0.02000
H715        H  0.79111803  0.67471124  0.35926257     0.07900
H716        H  0.85732029  0.61999065  0.43479528     0.07900
N717        N  0.88391007  0.71731834  0.42670790    -0.25000
N718        N  0.91108795  0.64924126  0.38211592    -0.24700
N719        N  0.82538405  0.71657871  0.36874919     0.02400
C720        C  0.94417438  0.74237306  0.37596933     0.43800
C721        C  0.85902837  0.66261228  0.31112077    -0.05900
N722        N  0.87442284  0.64949150  0.41888382    -0.24700
H723        H  0.92723683  0.61939454  0.36573685     0.07900
N724        N  0.92241783  0.74900529  0.37044587    -0.45900
H725        H  0.84970747  0.67374619  0.29923183     0.07900
C726        C  0.79860600  0.64302493  0.38171700     0.43600
C727        C  0.88465560  0.74467375  0.32859588    -0.05400
Co728      Co  0.84302347  0.69097945  0.35087009     0.73800
N729        N  0.88038099  0.63399616  0.32740097    -0.45600
C730        C  0.86621332  0.74100031  0.45105842     0.43900
N731        N  0.80265419  0.71879057  0.37090700    -0.45600
Co732      Co  0.87341414  0.64776365  0.38132769     0.73900
C733        C  0.86683304  0.63598810  0.43673941    -0.05900
C734        C  0.94233947  0.72131689  0.38977202    -0.05500
N735        N  0.83685383  0.73282889  0.37971930    -0.25000
N736        N  0.94333448  0.66616293  0.39414208    -0.45800
H737        H  0.88899696  0.71010121  0.46268959     0.07900
C738        C  0.80310501  0.66349305  0.36835230    -0.05900
Cl739      Cl  0.87287829  0.69067323  0.38038797    -0.48900
C740        C  0.87213689  0.64203759  0.30653506     0.43600
H741        H  0.82615047  0.76201986  0.40029625     0.07900
N742        N  0.81954440  0.63469997  0.38938580    -0.45600
C743        C  0.73303788  0.94689993  0.38196957     0.43500
N744        N  0.70958440  0.92199880  0.39633226     0.02400
C745        C  0.70527536  0.80512271  0.37290937    -0.05500
H746        H  0.69523802  0.86046196  0.30038990     0.07900
C747        C  0.62328931  0.88864454  0.33251155    -0.05800
Co748      Co  0.72242647  0.87393605  0.38329274     0.74200
N749        N  0.70333097  0.86488109  0.33657281    -0.25000
Co750      Co  0.67765863  0.84763968  0.35466258     0.74100
C751        C  0.63294026  0.88017284  0.30997197     0.43600
N752        N  0.64083682  0.91660933  0.38828134     0.02000
N753        N  0.65294200  0.86694095  0.33850228     0.02100
N754        N  0.73426107  0.82323016  0.39182697    -0.45900
H755        H  0.75457487  0.91828506  0.36419585     0.07900
N756        N  0.72048608  0.87507758  0.34744682     0.02400
N757        N  0.65199781  0.83093674  0.37253888     0.02100
C758        C  0.63166727  0.80263205  0.38549878     0.43700
N759        N  0.65866306  0.92540357  0.39962542    -0.24500
C760        C  0.73748677  0.86165331  0.43348992    -0.05400
N761        N  0.71436370  0.94441053  0.39586243    -0.45600
N762        N  0.64954983  0.80823105  0.37188439    -0.45800
C763        C  0.72997817  0.86832296  0.45674594     0.43500
N764        N  0.71965933  0.83823693  0.38253570     0.02400
N765        N  0.65804057  0.89006775  0.43379227    -0.24500
N766        N  0.72435780  0.90961649  0.38416109    -0.25000
N767        N  0.64019703  0.87927184  0.42443291     0.02000
H768        H  0.66808385  0.89857513  0.46857775     0.07900
H769        H  0.60863902  0.82791659  0.40683311     0.07900
N770        N  0.70260798  0.82814492  0.37141471    -0.25000
N771        N  0.63696799  0.87925351  0.34936529    -0.24700
N772        N  0.70852085  0.88525712  0.43151096     0.02400
C773        C  0.72763260  0.88075628  0.31143102     0.43800
C774        C  0.65695584  0.94839672  0.40054538    -0.05900
N775        N  0.63659766  0.84173014  0.38567848    -0.24700
H776        H  0.60831457  0.89949949  0.33557734     0.07900
N777        N  0.73556192  0.88464927  0.33307503    -0.45900
H778        H  0.66894086  0.95988916  0.40914655     0.07900
C779        C  0.63492674  0.87836094  0.46163703     0.43600
C780        C  0.73982718  0.92376667  0.37437101    -0.05400
Co781      Co  0.68376942  0.90586218  0.41543320     0.73800
N782        N  0.62684941  0.93343894  0.38051795    -0.45600
C783        C  0.72617628  0.80194465  0.38673793     0.43900
N784        N  0.71217488  0.88330146  0.45407351    -0.45600
Co785      Co  0.63744331  0.87925149  0.38698284     0.73900
C786        C  0.62302685  0.82496050  0.39518269    -0.05900
C787        C  0.70634440  0.86744017  0.31370548    -0.05500
N788        N  0.72323038  0.87299513  0.41913676    -0.25000
N789        N  0.65107416  0.86704732  0.31580204    -0.45800
H790        H  0.69409367  0.79234815  0.36510345     0.07900
C791        C  0.65608806  0.89045914  0.45674665    -0.05900
Cl792      Cl  0.67994952  0.87674080  0.38513764    -0.48900
C793        C  0.63601034  0.95386454  0.38819102     0.43600
H794        H  0.75191304  0.85091685  0.42816926     0.07900
N795        N  0.62582018  0.87142409  0.44088053    -0.45600
C796        C  0.01196628  0.81382165  0.37903092     0.43500
N797        N  0.03562038  0.83782321  0.39410843     0.02400
C798        C  0.04007507  0.95543967  0.37495358    -0.05500
H799        H  0.04672170  0.90264634  0.29979167     0.07900
C800        C  0.11950561  0.87140584  0.32906348    -0.05800
Co801      Co  0.02278794  0.88641373  0.38317600     0.74200
N802        N  0.04023793  0.89717888  0.33615355    -0.25000
Co803      Co  0.06672506  0.91330324  0.35393845     0.74100
C804        C  0.10854547  0.87959381  0.30702407     0.43600
N805        N  0.10456857  0.84295742  0.38530719     0.02000
N806        N  0.09083972  0.89404328  0.33647553     0.02100
N807        N  0.01211753  0.93639641  0.39465110    -0.45900
H808        H  0.99010133  0.84314602  0.36297100     0.07900
N809        N  0.02352726  0.88673487  0.34755066     0.02400
N810        N  0.09275974  0.92891402  0.37192095     0.02100
C811        C  0.11199675  0.95691139  0.38668554     0.43700
N812        N  0.08666211  0.83399918  0.39648943    -0.24500
C813        C  0.00888332  0.89686379  0.43371046    -0.05400
N814        N  0.03085116  0.81545734  0.39269514    -0.45600
N815        N  0.09416319  0.95161242  0.37307153    -0.45800
C816        C  0.01686036  0.88939386  0.45652356     0.43500
N817        N  0.02588660  0.92192502  0.38358757     0.02400
N818        N  0.08784389  0.86834304  0.43112186    -0.24500
N819        N  0.02062733  0.85081593  0.38283202    -0.25000
N820        N  0.10575935  0.87934066  0.42205917     0.02000
H821        H  0.07718571  0.85916005  0.46542785     0.07900
H822        H  0.13676655  0.93110204  0.40539474     0.07900
N823        N  0.04245976  0.93248651  0.37210335    -0.25000
N824        N  0.10704194  0.88127718  0.34660060    -0.24700
N825        N  0.03763078  0.87316848  0.43038369     0.02400
C826        C  0.01484431  0.88180471  0.31195226     0.43800
C827        C  0.08885476  0.81109650  0.39817163    -0.05900
N828        N  0.10878034  0.91778478  0.38400166    -0.24700
H829        H  0.13402164  0.85973044  0.33129593     0.07900
N830        N  0.00793072  0.87739419  0.33380290    -0.45900
H831        H  0.07720183  0.79964781  0.40736031     0.07900
C832        C  0.10986767  0.88044902  0.45947930     0.43600
C833        C  0.00497965  0.83723160  0.37271369    -0.05400
Co834      Co  0.06187618  0.85312285  0.41304500     0.73800
N835        N  0.11925473  0.82629086  0.37860421    -0.45600
C836        C  0.02017504  0.95785523  0.39042422     0.43900
N837        N  0.03447392  0.87437100  0.45306596    -0.45600
Co838      Co  0.10787531  0.88034010  0.38441932     0.73900
C839        C  0.12222890  0.93433475  0.39401768    -0.05900
C840        C  0.03614843  0.89531859  0.31338478    -0.05500
N841        N  0.02278938  0.88597011  0.41878060    -0.25000
N842        N  0.09126813  0.89349931  0.31365424    -0.45800
H843        H  0.05098239  0.96855846  0.36730290     0.07900
C844        C  0.08928411  0.86777312  0.45399220    -0.05900
Cl845      Cl  0.06522519  0.88317665  0.38358646    -0.48900
C846        C  0.11032140  0.80583955  0.38665986     0.43600
H847        H  0.99440115  0.90778364  0.42897452     0.07900
N848        N  0.11977349  0.88712648  0.43885458    -0.45600
C849        C  0.86857974  0.01167281  0.31950345     0.43500
N850        N  0.88521290  0.03508259  0.34281423     0.02400
C851        C  0.86546331  0.04466898  0.45953057    -0.05500
H852        H  0.79084819  0.04906723  0.40662842     0.07900
C853        C  0.82065235  0.12086972  0.37235008    -0.05800
Co854      Co  0.87417367  0.02400417  0.39160989     0.74200
N855        N  0.82713077  0.04219577  0.40099876    -0.25000
Co856      Co  0.84489798  0.06937913  0.41599525     0.74100
C857        C  0.79861191  0.11017417  0.38075190     0.43600
N858        N  0.87702340  0.10423232  0.34436697     0.02000
N859        N  0.82790857  0.09258760  0.39551839     0.02100
N860        N  0.88487277  0.01547391  0.44207302    -0.45900
H861        H  0.85321117  0.99063887  0.35001160     0.07900
N862        N  0.83836476  0.02483938  0.39140278     0.02400
N863        N  0.86251016  0.09600121  0.43068701     0.02100
C864        C  0.87602453  0.11641554  0.45860080     0.43700
N865        N  0.88759108  0.08544477  0.33662226    -0.24500
C866        C  0.92524868  0.01214608  0.40423607    -0.05400
N867        N  0.88262066  0.03030954  0.32056037    -0.45600
N868        N  0.86250930  0.09854937  0.45330469    -0.45800
C869        C  0.94787504  0.02129977  0.39735671     0.43500
N870        N  0.87413294  0.02869895  0.42685415     0.02400
N871        N  0.92248980  0.08860310  0.37086021    -0.24500
N872        N  0.87412974  0.02047231  0.35629583    -0.25000
N873        N  0.91342548  0.10724608  0.38055875     0.02000
H874        H  0.95659015  0.07788270  0.36119191     0.07900
H875        H  0.89653280  0.13943813  0.43245562     0.07900
N876        N  0.86275370  0.04591999  0.43647455    -0.25000
N877        N  0.83811564  0.10846080  0.38244635    -0.24700
N878        N  0.92123843  0.03899737  0.37850453     0.02400
C879        C  0.80264499  0.01623589  0.38726952     0.43800
C880        C  0.88902152  0.08579096  0.31366094    -0.05900
N881        N  0.87522611  0.11131302  0.41931533    -0.24700
H882        H  0.82293785  0.13525450  0.36050195     0.07900
N883        N  0.82439322  0.00883557  0.38300242    -0.45900
H884        H  0.89766553  0.07274554  0.30339853     0.07900
C885        C  0.95062460  0.11298041  0.37848177     0.43600
C886        C  0.86328591  0.00487902  0.34328422    -0.05400
Co887      Co  0.90414171  0.06189955  0.35706009     0.73800
N888        N  0.87113213  0.11813604  0.32669401    -0.45600
C889        C  0.88057965  0.02465344  0.46305383     0.43900
N890        N  0.94388392  0.03758907  0.38110290    -0.45600
Co891      Co  0.87587905  0.10915206  0.38168368     0.73900
C892        C  0.88497428  0.12509101  0.43582385    -0.05900
C893        C  0.80435904  0.03816345  0.39959372    -0.05500
N894        N  0.90992705  0.02435893  0.39176219    -0.25000
N895        N  0.80515689  0.09315357  0.39498867    -0.45800
H896        H  0.85798469  0.05636688  0.47206168     0.07900
C897        C  0.94529093  0.09058658  0.36905545    -0.05900
Cl898      Cl  0.87474177  0.06633350  0.38650639    -0.48900
C899        C  0.87851037  0.10741138  0.30677181     0.43600
H900        H  0.92092321  0.99854482  0.41638516     0.07900
N901        N  0.93003852  0.12260739  0.38565211    -0.45600
C902        C  0.80235763  0.87532344  0.52174989     0.43500
N903        N  0.82747043  0.89150759  0.54356446     0.02400
C904        C  0.94444188  0.86827737  0.54524615    -0.05500
H905        H  0.88860526  0.79602084  0.55316268     0.07900
C906        C  0.86360572  0.82497106  0.62747062    -0.05800
Co907      Co  0.87552008  0.87977724  0.52924219     0.74200
N908        N  0.88488176  0.83239314  0.54634537    -0.25000
Co909      Co  0.90243780  0.84927957  0.57253893     0.74100
C910        C  0.87110213  0.80296248  0.61611247     0.43600
N911        N  0.83408281  0.88120850  0.61197343     0.02000
N912        N  0.88356921  0.83221389  0.59688574     0.02100
N913        N  0.92615154  0.88869862  0.51717760    -0.45900
H914        H  0.83064845  0.85933113  0.49859484     0.07900
N915        N  0.87472150  0.84421385  0.52972187     0.02400
N916        N  0.91961353  0.86621300  0.59840559     0.02100
C917        C  0.94914077  0.87836610  0.61770597     0.43700
N918        N  0.82507509  0.89294085  0.59440888    -0.24500
C919        C  0.88835323  0.93042848  0.51753094    -0.05400
N920        N  0.80487756  0.88932637  0.54027877    -0.45600
N921        N  0.94235372  0.86563841  0.59967194    -0.45800
C922        C  0.88250342  0.95304872  0.52720902     0.43500
N923        N  0.91125352  0.87884624  0.53149022     0.02400
N924        N  0.85981668  0.92735314  0.59577342    -0.24500
N925        N  0.83978537  0.88028430  0.52800660    -0.25000
N926        N  0.87142220  0.91769985  0.61303094     0.02000
H927        H  0.85072858  0.96225006  0.58639717     0.07900
H928        H  0.92466300  0.89820427  0.64312488     0.07900
N929        N  0.92148452  0.86687932  0.54799002    -0.25000
N930        N  0.87212203  0.84239280  0.61393328    -0.24700
N931        N  0.86395464  0.92684713  0.54563314     0.02400
C932        C  0.86775072  0.80885313  0.52137338     0.43800
C933        C  0.80214494  0.89373704  0.59602352    -0.05900
N934        N  0.90949477  0.87862369  0.61479135    -0.24700
H935        H  0.85358479  0.82726828  0.64315727     0.07900
N936        N  0.86444573  0.83088315  0.51437816    -0.45900
H937        H  0.79064029  0.90278403  0.58427316     0.07900
C938        C  0.87241661  0.95493754  0.61853800     0.43600
C939        C  0.82545923  0.86963970  0.51333800    -0.05400
Co940      Co  0.84386202  0.90976048  0.56978714     0.73800
N941        N  0.81726724  0.87313045  0.62583984    -0.45600
C942        C  0.94744322  0.88303928  0.52498576     0.43900
N943        N  0.86698367  0.94947274  0.54426507    -0.45600
Co944      Co  0.87178763  0.88000834  0.61473599     0.73900
C945        C  0.92700832  0.88727737  0.62808678    -0.05900
C946        C  0.88172009  0.80976765  0.54249315    -0.05500
N947        N  0.87618074  0.91537804  0.53021342    -0.25000
N948        N  0.88339492  0.80945451  0.59766380    -0.45800
H949        H  0.95722755  0.85988795  0.55599508     0.07900
C950        C  0.85930932  0.95024909  0.59800980    -0.05900
Cl951      Cl  0.87338148  0.87969623  0.57180167    -0.48900
C952        C  0.79674721  0.88085150  0.61660151     0.43600
H953        H  0.89968777  0.92593159  0.50329994     0.07900
N954        N  0.87988608  0.93401423  0.62717904    -0.45600
C955        C  0.12709480  0.05524628  0.39743193     0.43500
N956        N  0.12713180  0.09257025  0.40134396     0.02400
C957        C  0.17399079  0.14386369  0.49889788    -0.05500
H958        H  0.10590343  0.08678569  0.51468797     0.07900
C959        C  0.05394593  0.13969468  0.47032568    -0.05800
Co960      Co  0.15548436  0.10272134  0.44366630     0.74200
N961        N  0.12535984  0.09682635  0.48456692    -0.25000
Co962      Co  0.12388905  0.13250258  0.48380760     0.74100
C963        C  0.05261640  0.12602848  0.49174332     0.43600
N964        N  0.07746661  0.14210814  0.41546797     0.02000
N965        N  0.08821703  0.13128379  0.48263139     0.02100
N966        N  0.19427135  0.12372727  0.47214472    -0.45900
H967        H  0.14947619  0.04970975  0.42939749     0.07900
N968        N  0.13767176  0.08517626  0.46936058     0.02400
N969        N  0.12255226  0.16812058  0.48238116     0.02100
C970        C  0.12558800  0.20404052  0.49088084     0.43700
N971        N  0.08794519  0.13055024  0.39869261    -0.24500
C972        C  0.19562400  0.11947438  0.41621686    -0.05400
N973        N  0.11894690  0.07551607  0.38795215    -0.45600
N974        N  0.13152288  0.18245818  0.49765555    -0.45800
C975        C  0.20043651  0.13063285  0.39447985     0.43500
N976        N  0.17174428  0.12239261  0.46850519     0.02400
N977        N  0.12438243  0.16757692  0.39896726    -0.24500
N978        N  0.13929681  0.08390612  0.41877495    -0.25000
N979        N  0.11190630  0.17775964  0.41531502     0.02000
H980        H  0.14589390  0.18239005  0.37180957     0.07900
H981        H  0.10253815  0.21466645  0.45996874     0.07900
N982        N  0.15955213  0.13372537  0.48402759    -0.25000
N983        N  0.07664450  0.14203137  0.46618727    -0.24700
N984        N  0.16319799  0.12994801  0.40005781     0.02400
C985        C  0.12408051  0.05926999  0.49210202     0.43800
C986        C  0.07078134  0.12256418  0.38460931    -0.05900
N987        N  0.11084395  0.17885370  0.46605554    -0.24700
H988        H  0.04036304  0.14729762  0.45993464     0.07900
N989        N  0.13784175  0.06256876  0.47346843    -0.45900
H990        H  0.07349759  0.11279547  0.36886062     0.07900
C991        C  0.12624118  0.20696159  0.39711530     0.43600
C992        C  0.14032938  0.06100424  0.41752135    -0.05400
Co993      Co  0.12559533  0.13009342  0.39840003     0.73800
N994        N  0.05477039  0.14271852  0.41379982    -0.45600
C995        C  0.19710846  0.13734656  0.49086190     0.43900
N996        N  0.17953123  0.13712528  0.38511645    -0.45600
Co997      Co  0.09406276  0.16027994  0.44062299     0.73900
C998        C  0.11142719  0.20169927  0.47006208    -0.05900
C999        C  0.11604999  0.08200465  0.49966044    -0.05500
N1000       N  0.17278640  0.11961335  0.41811698    -0.25000
N1001       N  0.07460717  0.12170499  0.49830160    -0.45800
H1002       H  0.16876329  0.15336070  0.51419052     0.07900
C1003       C  0.13424714  0.18487982  0.38630712    -0.05900
Cl1004     Cl  0.12470458  0.13135222  0.44122768    -0.48900
C1005       C  0.04849292  0.13093842  0.39497604     0.43600
H1006       H  0.20737968  0.11145263  0.42843397     0.07900
N1007       N  0.11252173  0.20055088  0.41466094    -0.45600
C1008       C  0.62416549  0.05121567  0.36577288     0.43500
N1009       N  0.62176766  0.08871988  0.36309496     0.02400
C1010       C  0.57674669  0.14344745  0.26605294    -0.05500
H1011       H  0.64704680  0.08834468  0.24928148     0.07900
C1012       C  0.69617088  0.13669623  0.29969385    -0.05800
Co1013     Co  0.59524530  0.09940989  0.31968445     0.74200
N1014       N  0.62667285  0.09611789  0.27938874    -0.25000
Co1015     Co  0.62714050  0.13148793  0.28137342     0.74100
C1016       C  0.69875700  0.12271376  0.27886471     0.43600
N1017       N  0.67093351  0.13961526  0.35186450     0.02000
N1018       N  0.66286107  0.13044958  0.28401198     0.02100
N1019       N  0.55662470  0.12165194  0.29164118    -0.45900
H1020       H  0.60393420  0.04602402  0.33227414     0.07900
N1021       N  0.61463181  0.08342898  0.29395193     0.02400
N1022       N  0.62767077  0.16687893  0.28387394     0.02100
C1023       C  0.62373380  0.20291520  0.27628039     0.43700
N1024       N  0.66016080  0.12664234  0.36741333    -0.24500
C1025       C  0.55337618  0.11567891  0.34577703    -0.05400
N1026       N  0.62974037  0.07155959  0.37667052    -0.45600
N1027       N  0.61861850  0.18147208  0.26879945    -0.45800
C1028       C  0.54748633  0.12861185  0.36623227     0.43500
N1029       N  0.57916807  0.11973345  0.29492392     0.02400
N1030       N  0.62373567  0.16397812  0.36737103    -0.24500
N1031       N  0.61134785  0.08018361  0.34459947    -0.25000
N1032       N  0.63616602  0.17454731  0.35122199     0.02000
H1033       H  0.60403624  0.17849514  0.39612021     0.07900
H1034       H  0.64574885  0.21315493  0.30799350     0.07900
N1035       N  0.59132449  0.13213594  0.28015604    -0.25000
N1036       N  0.67340555  0.14050806  0.30145413    -0.24700
N1037       N  0.58502786  0.12600741  0.36334113     0.02400
C1038       C  0.62987885  0.05914932  0.27045236     0.43800
C1039       C  0.67705996  0.11712395  0.38095150    -0.05900
N1040       N  0.63868983  0.17728285  0.30076507    -0.24700
H1041       H  0.70914106  0.14285381  0.31164522     0.07900
N1042       N  0.61561814  0.06106453  0.28895273    -0.45900
H1043       H  0.67420499  0.10569821  0.39558213     0.07900
C1044       C  0.62352060  0.20337025  0.37092647     0.43600
C1045       C  0.61188416  0.05720566  0.34495157    -0.05400
Co1046     Co  0.62257260  0.12625190  0.36667257     0.73800
N1047       N  0.69357276  0.14025431  0.35420821    -0.45600
C1048       C  0.55366662  0.13663261  0.27395137     0.43900
N1049       N  0.56797931  0.13441003  0.37679290    -0.45600
Co1050     Co  0.65488491  0.15809589  0.32638656     0.73900
C1051       C  0.63756680  0.20024803  0.29731420    -0.05900
C1052       C  0.63691152  0.08242940  0.26391025    -0.05500
N1053       N  0.57634660  0.11522637  0.34514595    -0.25000
N1054       N  0.67739147  0.11972293  0.26994138    -0.45800
H1055       H  0.58178571  0.15443779  0.25171453     0.07900
C1056       C  0.61494583  0.18111729  0.38109161    -0.05900
Cl1057     Cl  0.62489838  0.12878531  0.32393767    -0.48900
C1058       C  0.69936271  0.12673491  0.37204208     0.43600
H1059       H  0.54210802  0.10749223  0.33331234     0.07900
N1060       N  0.63649918  0.19723422  0.35284676    -0.45600
C1061       C  0.12386343  0.76853582  0.06157866     0.43500
N1062       N  0.11804619  0.77651820  0.09723028     0.02400
C1063       C  0.06743970  0.87574872  0.14064415    -0.05500
H1064       H  0.14004045  0.89028173  0.08026500     0.07900
C1065       C  0.19161662  0.83952784  0.14380136    -0.05800
Co1066     Co  0.09122769  0.82002048  0.10269151     0.74200
N1067       N  0.12182665  0.86092246  0.09537323    -0.25000
Co1068     Co  0.12257217  0.86147947  0.13306370     0.74100
C1069       C  0.19746810  0.85952145  0.13023205     0.43600
N1070       N  0.16548165  0.78901066  0.14410312     0.02000
N1071       N  0.16006671  0.85760977  0.13353556     0.02100
N1072       N  0.05200914  0.84776133  0.11865995    -0.45900
H1073       H  0.10350108  0.80057436  0.04937819     0.07900
N1074       N  0.11019408  0.84407299  0.08522484     0.02400
N1075       N  0.12342868  0.85970971  0.17081103     0.02100
C1076       C  0.12355945  0.86518842  0.20811467     0.43700
N1077       N  0.15282162  0.77363759  0.13323366    -0.24500
C1078       C  0.04911949  0.79456775  0.12366828    -0.05400
N1079       N  0.12766561  0.76099276  0.08339708    -0.45600
N1080       N  0.11602226  0.87425197  0.18738438    -0.45800
C1081       C  0.04601075  0.77498869  0.13926412     0.43500
N1082       N  0.07467120  0.84610474  0.11952274     0.02400
N1083       N  0.11710855  0.77682469  0.16899576    -0.24500
N1084       N  0.10806254  0.79353494  0.08575716    -0.25000
N1085       N  0.12981924  0.79203884  0.18009656     0.02000
H1086       H  0.09413803  0.74977148  0.18069576     0.07900
H1087       H  0.14431426  0.83226228  0.21473931     0.07900
N1088       N  0.08489194  0.86223791  0.13205634    -0.25000
N1089       N  0.16870657  0.83953319  0.14473421    -0.24700
N1090       N  0.08207117  0.77952443  0.13286710     0.02400
C1091       C  0.12197546  0.86379709  0.05587539     0.43800
C1092       C  0.16666615  0.75814199  0.12307897    -0.05900
N1093       N  0.13465450  0.84202033  0.18015220    -0.24700
H1094       H  0.20285258  0.82716726  0.15235331     0.07900
N1095       N  0.10982040  0.84528068  0.06245693    -0.45900
H1096       H  0.16083859  0.74328864  0.11338114     0.07900
C1097       C  0.11263554  0.77331286  0.20704007     0.43600
C1098       C  0.11055256  0.78986547  0.06305783    -0.05400
Co1099     Co  0.11740987  0.77598436  0.13309907     0.73800
N1100       N  0.18791486  0.78482551  0.14215112    -0.45600
C1101       C  0.04534728  0.86578941  0.13137336     0.43900
N1102       N  0.06714591  0.76628414  0.14396030    -0.45600
Co1103     Co  0.14986428  0.81568651  0.16236785     0.73900
C1104       C  0.13570439  0.84413478  0.20302817    -0.05900
C1105       C  0.13003312  0.87465288  0.07793107    -0.05500
N1106       N  0.07203316  0.79616084  0.12094649    -0.25000
N1107       N  0.17713868  0.87049485  0.12449725    -0.45800
H1108       H  0.06980720  0.89078477  0.15154350     0.07900
C1109       C  0.10556972  0.76404744  0.18458713    -0.05900
Cl1110     Cl  0.12029613  0.81851505  0.13280671    -0.48900
C1111       C  0.19000985  0.76585371  0.12869362     0.43600
H1112       H  0.03632916  0.80577524  0.11582097     0.07900
N1113       N  0.12797847  0.79030668  0.20284823    -0.45600
C1114       C  0.04903739  0.63890134  0.27792173     0.43500
N1115       N  0.08528465  0.63315712  0.28309381     0.02400
C1116       C  0.13416378  0.57730716  0.37754895    -0.05500
H1117       H  0.07558331  0.65091250  0.39620126     0.07900
C1118       C  0.14042143  0.70261286  0.34726842    -0.05800
Co1119     Co  0.09467285  0.60324553  0.32373884     0.74200
N1120       N  0.08966993  0.63232405  0.36653123    -0.25000
Co1121     Co  0.12729129  0.63289629  0.36525429     0.74100
C1122       C  0.12764614  0.70835264  0.36777251     0.43600
N1123       N  0.13346615  0.67994795  0.29554357     0.02000
N1124       N  0.12829752  0.67079237  0.36355687     0.02100
N1125       N  0.11297155  0.56272002  0.34843403    -0.45900
H1126       H  0.03977650  0.61645898  0.30964570     0.07900
N1127       N  0.07891009  0.62037530  0.35026379     0.02400
N1128       N  0.16494175  0.63303312  0.36095702     0.02100
C1129       C  0.20258986  0.63001417  0.36239087     0.43700
N1130       N  0.12074886  0.66859156  0.28053418    -0.24500
C1131       C  0.11278854  0.56324506  0.29256445    -0.05400
N1132       N  0.07025238  0.64350503  0.26929437    -0.45600
N1133       N  0.18236536  0.62394281  0.37348590    -0.45800
C1134       C  0.12593745  0.56208501  0.27101226     0.43500
N1135       N  0.11378851  0.58545803  0.34750032     0.02400
N1136       N  0.15647753  0.63248834  0.27751611    -0.24500
N1137       N  0.07528564  0.62170184  0.30004163    -0.25000
N1138       N  0.16890984  0.64360763  0.29291568     0.02000
H1139       H  0.16566270  0.61062531  0.24859175     0.07900
H1140       H  0.20705547  0.65309163  0.33057015     0.07900
N1141       N  0.12600245  0.59515433  0.36424489    -0.25000
N1142       N  0.13931609  0.67982987  0.34563875    -0.24700
N1143       N  0.12083728  0.59749376  0.27995303     0.02400
C1144       C  0.05033980  0.63172620  0.37128337     0.43800
C1145       C  0.10863681  0.68373247  0.26785743    -0.05900
N1146       N  0.17321779  0.64457352  0.34295626    -0.24700
H1147       H  0.14944480  0.71378023  0.33520421     0.07900
N1148       N  0.05630403  0.61962854  0.35257456    -0.45900
H1149       H  0.09700620  0.67944127  0.25386462     0.07900
C1150       C  0.19390510  0.62655371  0.27177462     0.43600
C1151       C  0.05230778  0.62417601  0.29828622    -0.05400
Co1152     Co  0.12081670  0.63300032  0.27967396     0.73800
N1153       N  0.13107866  0.70268472  0.29362825    -0.45600
C1154       C  0.12537318  0.55554910  0.36657112     0.43900
N1155       N  0.13006763  0.58393494  0.26404901    -0.45600
Co1156     Co  0.15386380  0.66212782  0.31921960     0.73900
C1157       C  0.19615809  0.64400633  0.34281109    -0.05900
C1158       C  0.07271399  0.64064651  0.38081274    -0.05500
N1159       N  0.11078972  0.58594003  0.29683004    -0.25000
N1160       N  0.12065692  0.68773062  0.37761746    -0.45800
H1161       H  0.14454067  0.57919576  0.39302306     0.07900
C1162       C  0.17080065  0.62122531  0.26311112    -0.05900
Cl1163     Cl  0.12417399  0.63280918  0.32240684    -0.48900
C1164       C  0.11522740  0.70630004  0.27683945     0.43600
H1165       H  0.10570230  0.54953945  0.30303935     0.07900
N1166       N  0.19135393  0.64078220  0.28995176    -0.45600
C1167       C  0.85476606  0.12723552  0.05748202     0.43500
N1168       N  0.85118467  0.12648619  0.09487072     0.02400
C1169       C  0.75385207  0.07961002  0.14751779    -0.05500
H1170       H  0.73850387  0.15196168  0.09381457     0.07900
C1171       C  0.78590070  0.19918237  0.14763163    -0.05800
Co1172     Co  0.80844781  0.09918040  0.10551595     0.74200
N1173       N  0.76802322  0.13075842  0.10257222    -0.25000
Co1174     Co  0.76982639  0.13011362  0.13824882     0.74100
C1175       C  0.76515761  0.20193664  0.13367127     0.43600
N1176       N  0.83898401  0.17493501  0.14594948     0.02000
N1177       N  0.77167797  0.16583653  0.13865257     0.02100
N1178       N  0.77966869  0.05993387  0.12560146    -0.45900
H1179       H  0.82178055  0.10640753  0.05206960     0.07900
N1180       N  0.78286540  0.11884680  0.09002456     0.02400
N1181       N  0.77299708  0.12930366  0.17387973     0.02100
C1182       C  0.76758771  0.12271745  0.20997928     0.43700
N1183       N  0.85493499  0.16464121  0.13306784    -0.24500
C1184       C  0.83537125  0.05750930  0.12064798    -0.05400
N1185       N  0.86480865  0.13432888  0.07776184    -0.45600
N1186       N  0.75891692  0.11893329  0.18863097    -0.45800
C1187       C  0.85631754  0.05195756  0.13281951     0.43500
N1188       N  0.78370868  0.08246122  0.12522694     0.02400
N1189       N  0.85662866  0.12751028  0.16971355    -0.24500
N1190       N  0.83312701  0.11540201  0.08631609    -0.25000
N1191       N  0.84061670  0.13955758  0.18078847     0.02000
H1192       H  0.88608627  0.10811946  0.18303021     0.07900
H1193       H  0.79987531  0.14382983  0.21996983     0.07900
N1194       N  0.76876114  0.09433495  0.13764765    -0.25000
N1195       N  0.78875680  0.17627262  0.14936376    -0.24700
N1196       N  0.85223091  0.08936681  0.13165446     0.02400
C1197       C  0.76049727  0.13478000  0.06523001     0.43800
C1198       C  0.86765334  0.18198326  0.12323692    -0.05900
N1199       N  0.79024794  0.13988716  0.18421075    -0.24700
H1200       H  0.79708641  0.21205003  0.15516188     0.07900
N1201       N  0.77876197  0.12041817  0.06756483    -0.45900
H1202       H  0.88213635  0.17955442  0.11156562     0.07900
C1203       C  0.86163565  0.12722767  0.20896230     0.43600
C1204       C  0.83406372  0.11491255  0.06333454    -0.05400
Co1205     Co  0.85509166  0.12696143  0.13225216     0.73800
N1206       N  0.83981691  0.19771983  0.14554531    -0.45600
C1207       C  0.76129870  0.05668547  0.13965816     0.43900
N1208       N  0.86612769  0.07247856  0.13961268    -0.45600
Co1209     Co  0.81473652  0.15774787  0.16522234     0.73900
C1210       C  0.78827573  0.13687035  0.20711686    -0.05900
C1211       C  0.75313562  0.14152156  0.08843497    -0.05500
N1212       N  0.83412464  0.08045936  0.12089600    -0.25000
N1213       N  0.75702967  0.18056932  0.12897203    -0.45800
H1214       H  0.73902447  0.08460507  0.15783578     0.07900
C1215       C  0.87096629  0.11870774  0.18632377    -0.05900
Cl1216     Cl  0.81241313  0.12846265  0.13528004    -0.48900
C1217       C  0.85708746  0.20412862  0.13156649     0.43600
H1218       H  0.82292030  0.04605085  0.11269209     0.07900
N1219       N  0.84307312  0.13983532  0.20340634    -0.45600
C1220       C  0.76119253  0.56236061  0.63635156     0.43500
N1221       N  0.77225715  0.59747923  0.63170407     0.02400
C1222       C  0.87233131  0.63835174  0.58032805    -0.05500
H1223       H  0.88572464  0.57733701  0.65235867     0.07900
C1224       C  0.83994095  0.64352407  0.70491311    -0.05800
Co1225     Co  0.81554518  0.60152992  0.60418913     0.74200
N1226       N  0.85657415  0.59302316  0.63442772    -0.25000
Co1227     Co  0.85842920  0.63061570  0.63517295     0.74100
C1228       C  0.86027992  0.63005791  0.70985919     0.43600
N1229       N  0.78736485  0.64434843  0.67921944     0.02000
N1230       N  0.85552413  0.63140486  0.67267413     0.02100
N1231       N  0.84353754  0.61764868  0.56451160    -0.45900
H1232       H  0.79302966  0.54861567  0.61620458     0.07900
N1233       N  0.83938540  0.58331716  0.62290066     0.02400
N1234       N  0.85798553  0.66825859  0.63607239     0.02100
C1235       C  0.86504029  0.70514660  0.63667391     0.43700
N1236       N  0.77170265  0.63349580  0.66683101    -0.24500
C1237       C  0.78878701  0.62209631  0.56222708    -0.05400
N1238       N  0.75558390  0.58462933  0.64062363    -0.45600
N1239       N  0.87296807  0.68427448  0.62844780    -0.45800
C1240       C  0.76857426  0.63721032  0.55933765     0.43500
N1241       N  0.84201786  0.61796190  0.58726772     0.02400
N1242       N  0.77530288  0.66868029  0.63068251    -0.24500
N1243       N  0.78848933  0.58518604  0.62147457    -0.25000
N1244       N  0.79072988  0.67986805  0.64303811     0.02000
H1245       H  0.74794860  0.67961144  0.60800537     0.07900
H1246       H  0.83273004  0.71292378  0.65792757     0.07900
N1247       N  0.85861186  0.62980000  0.59759873    -0.25000
N1248       N  0.83827421  0.64341298  0.68192733    -0.24700
N1249       N  0.77570630  0.63270692  0.59557286     0.02400
C1250       C  0.85869207  0.55349558  0.63434053     0.43800
C1251       C  0.75592747  0.62429509  0.68102874    -0.05900
N1252       N  0.84091176  0.67819533  0.64765774    -0.24700
H1253       H  0.82851849  0.65257925  0.71670916     0.07900
N1254       N  0.84012291  0.56051801  0.62242444    -0.45900
H1255       H  0.74058791  0.61499677  0.67575882     0.07900
C1256       C  0.77172699  0.70647905  0.62532907     0.43600
C1257       C  0.78310397  0.56269125  0.62347042    -0.05400
Co1258     Co  0.77327188  0.63313391  0.63119536     0.73800
N1259       N  0.78293534  0.64365973  0.70171093    -0.45600
C1260       C  0.86204982  0.62992844  0.55810713     0.43900
N1261       N  0.76140249  0.64282334  0.58087511    -0.45600
Co1262     Co  0.81430293  0.66154934  0.66316734     0.73900
C1263       C  0.84403135  0.70085925  0.64907205    -0.05900
C1264       C  0.86995207  0.57529035  0.64251536    -0.05500
N1265       N  0.79175105  0.62038820  0.58517293    -0.25000
N1266       N  0.86925360  0.62262507  0.68920407    -0.45800
H1267       H  0.88766761  0.64874373  0.58290119     0.07900
C1268       C  0.76247966  0.68392380  0.61895118    -0.05900
Cl1269     Cl  0.81560840  0.63164759  0.63349817    -0.48900
C1270       C  0.76360222  0.63085068  0.70408914     0.43600
H1271       H  0.79923444  0.61325191  0.54946693     0.07900
N1272       N  0.78893505  0.70264215  0.64073785    -0.45600
C1273       C  0.12183473  0.05372388  0.86532201     0.43500
N1274       N  0.11941754  0.09124379  0.86208343     0.02400
C1275       C  0.06638436  0.14674667  0.76972294    -0.05500
H1276       H  0.13743015  0.09117544  0.74780072     0.07900
C1277       C  0.18759235  0.14453222  0.79266444    -0.05800
Co1278     Co  0.08924381  0.10189065  0.82115731     0.74200
N1279       N  0.11787993  0.09960711  0.77852503    -0.25000
Co1280     Co  0.11752620  0.13542979  0.78076334     0.74100
C1281       C  0.18899807  0.13152337  0.77117127     0.43600
N1282       N  0.16651776  0.14274082  0.84743871     0.02000
N1283       N  0.15338702  0.13588266  0.78030990     0.02100
N1284       N  0.04799028  0.12417205  0.79596504    -0.45900
H1285       H  0.09884269  0.04792368  0.83377454     0.07900
N1286       N  0.10700870  0.08682420  0.79400964     0.02400
N1287       N  0.11710490  0.17113955  0.78432639     0.02100
C1288       C  0.11190351  0.20759442  0.77930269     0.43700
N1289       N  0.15711302  0.12979705  0.86385095    -0.24500
C1290       C  0.04957540  0.11741447  0.85003284    -0.05400
N1291       N  0.12885642  0.07426386  0.87492372    -0.45600
N1292       N  0.10666095  0.18644312  0.77080412    -0.45800
C1293       C  0.04501114  0.13129601  0.87007179     0.43500
N1294       N  0.07079261  0.12219326  0.79767273     0.02400
N1295       N  0.12013018  0.16644952  0.86774685    -0.24500
N1296       N  0.10733886  0.08246999  0.84474240    -0.25000
N1297       N  0.13130035  0.17754316  0.85110079     0.02000
H1298       H  0.10177014  0.17997351  0.89786467     0.07900
H1299       H  0.13621177  0.21610748  0.80977286     0.07900
N1300       N  0.08183321  0.13504612  0.78240138    -0.25000
N1301       N  0.16491537  0.14612590  0.79702255    -0.24700
N1302       N  0.08215480  0.12823157  0.86537172     0.02400
C1303       C  0.12165221  0.06230676  0.77055164     0.43800
C1304       C  0.17502045  0.12016705  0.87582041    -0.05900
N1305       N  0.12909040  0.18098073  0.80090891    -0.24700
H1306       H  0.20118564  0.15159552  0.80328793     0.07900
N1307       N  0.10852582  0.06439315  0.78972920    -0.45900
H1308       H  0.17320380  0.10861698  0.89050648     0.07900
C1309       C  0.11921179  0.20582504  0.87214554     0.43600
C1310       C  0.10770901  0.05939493  0.84558194    -0.05400
Co1311     Co  0.11970582  0.12883102  0.86606837     0.73800
N1312       N  0.18928809  0.14280815  0.84743735    -0.45600
C1313       C  0.04393206  0.13985014  0.77902739     0.43900
N1314       N  0.06598240  0.13757571  0.87924817    -0.45600
Co1315     Co  0.14804622  0.16188530  0.82422647     0.73900
C1316       C  0.12718159  0.20391401  0.79901965    -0.05900
C1317       C  0.12775469  0.08562678  0.76287919    -0.05500
N1318       N  0.07236566  0.11699535  0.84805269    -0.25000
N1319       N  0.16714893  0.12686584  0.76436778    -0.45800
H1320       H  0.07049893  0.15826463  0.75549893     0.07900
C1321       C  0.11178206  0.18314238  0.88232051    -0.05900
Cl1322     Cl  0.11865851  0.13195152  0.82323116    -0.48900
C1323       C  0.19659034  0.12903905  0.86456109     0.43600
H1324       H  0.03751974  0.10941626  0.83818973     0.07900
N1325       N  0.13122645  0.20021833  0.85320210    -0.45600
C1326       C  0.63105644  0.27252694  0.05851021     0.43500
N1327       N  0.62669942  0.27977568  0.09461694     0.02400
C1328       C  0.57171872  0.37446973  0.14302906    -0.05500
H1329       H  0.64304717  0.39465016  0.08491800     0.07900
C1330       C  0.69695296  0.34499652  0.14780354    -0.05800
Co1331     Co  0.59755498  0.32092776  0.10316770     0.74200
N1332       N  0.62606158  0.36385511  0.09847068    -0.25000
Co1333     Co  0.62676706  0.36213310  0.13618033     0.74100
C1334       C  0.70143979  0.36618165  0.13570822     0.43600
N1335       N  0.67402580  0.29259224  0.14172842     0.02000
N1336       N  0.66436461  0.36062387  0.13676341     0.02100
N1337       N  0.55698425  0.34604053  0.12094377    -0.45900
H1338       H  0.60948353  0.30478694  0.04826585     0.07900
N1339       N  0.61484219  0.34726979  0.08743553     0.02400
N1340       N  0.62720628  0.35737143  0.17398256     0.02100
C1341       C  0.62423877  0.35779539  0.21176628     0.43700
N1342       N  0.66226379  0.27740301  0.12965225    -0.24500
C1343       C  0.55723082  0.29073804  0.12089053    -0.05400
N1344       N  0.63592860  0.26485236  0.08003231    -0.45600
N1345       N  0.61759696  0.36905766  0.19171803    -0.45800
C1346       C  0.55538351  0.26950491  0.13437386     0.43500
N1347       N  0.57969084  0.34483335  0.12201628     0.02400
N1348       N  0.62687463  0.27482684  0.16578465    -0.24500
N1349       N  0.61570201  0.29674050  0.08413162    -0.25000
N1350       N  0.63865160  0.28978164  0.17813292     0.02000
H1351       H  0.60579170  0.24553078  0.17473454     0.07900
H1352       H  0.64863791  0.32691450  0.21549836     0.07900
N1353       N  0.58937057  0.36115494  0.13476246    -0.25000
N1354       N  0.67412220  0.34279392  0.14739746    -0.24700
N1355       N  0.59108336  0.27774343  0.13015171     0.02400
C1356       C  0.62512097  0.36928554  0.05916365     0.43800
C1357       C  0.67699007  0.26416771  0.11775515    -0.05900
N1358       N  0.63950816  0.33973964  0.18196997    -0.24700
H1359       H  0.70900989  0.33297433  0.15571435     0.07900
N1360       N  0.61393461  0.34991340  0.06483117    -0.45900
H1361       H  0.67211057  0.24984661  0.10681820     0.07900
C1362       C  0.62266104  0.26780971  0.20333130     0.43600
C1363       C  0.61747490  0.29380491  0.06118777    -0.05400
Co1364     Co  0.62670541  0.27689115  0.13012526     0.73800
N1365       N  0.69665439  0.29027621  0.13908517    -0.45600
C1366       C  0.55004191  0.36399995  0.13369505     0.43900
N1367       N  0.57702204  0.26221451  0.13927754    -0.45600
Co1368     Co  0.65682490  0.31622477  0.16241144     0.73900
C1369       C  0.63913353  0.33913117  0.20490956    -0.05900
C1370       C  0.63359629  0.37882559  0.08173994    -0.05500
N1371       N  0.57998469  0.29453024  0.11942276    -0.25000
N1372       N  0.68056362  0.37518874  0.12875852    -0.45800
H1373       H  0.57373567  0.38969710  0.15372353     0.07900
C1374       C  0.61627281  0.26002106  0.18011404    -0.05900
Cl1375     Cl  0.62693868  0.31946301  0.13301640    -0.48900
C1376       C  0.69986688  0.27291280  0.12376296     0.43600
H1377       H  0.54393273  0.30136732  0.11323739     0.07900
N1378       N  0.63688230  0.28605134  0.20067304    -0.45600
C1379       C  0.04914397  0.36928667  0.63324669     0.43500
N1380       N  0.08588814  0.36153532  0.63243563     0.02400
C1381       C  0.13038346  0.25967346  0.58782794    -0.05500
H1382       H  0.07563265  0.25066967  0.66216256     0.07900
C1383       C  0.13236722  0.29428192  0.70636935    -0.05800
Co1384     Co  0.09175216  0.31722318  0.60621399     0.74200
N1385       N  0.08584862  0.27820749  0.63921781    -0.25000
Co1386     Co  0.12144761  0.27646852  0.63792225     0.74100
C1387       C  0.11641337  0.27507952  0.70981093     0.43600
N1388       N  0.13708042  0.34600230  0.68054273     0.02000
N1389       N  0.12259374  0.27943132  0.67351743     0.02100
N1390       N  0.11070999  0.28680464  0.56739921    -0.45900
H1391       H  0.04001735  0.33652607  0.61332996     0.07900
N1392       N  0.07423208  0.29372047  0.62718299     0.02400
N1393       N  0.15715367  0.27570330  0.63665936     0.02100
C1394       C  0.19232751  0.26568340  0.63018887     0.43700
N1395       N  0.12463320  0.36215710  0.67000756    -0.24500
C1396       C  0.10845318  0.34196542  0.56347414    -0.05400
N1397       N  0.07042639  0.37701970  0.64024321    -0.45600
N1398       N  0.17006996  0.25959322  0.62680804    -0.45800
C1399       C  0.12243764  0.36158928  0.55744218     0.43500
N1400       N  0.10903100  0.29031158  0.58999962     0.02400
N1401       N  0.16111997  0.35957596  0.63248085    -0.24500
N1402       N  0.07534515  0.34425932  0.62182013    -0.25000
N1403       N  0.17094825  0.34244981  0.64418345     0.02000
H1404       H  0.17686636  0.38809271  0.61342336     0.07900
H1405       H  0.20608201  0.29727055  0.65043543     0.07900
N1406       N  0.12031936  0.27471779  0.60223991    -0.25000
N1407       N  0.13489077  0.29576397  0.68337331    -0.24700
N1408       N  0.12187296  0.35799701  0.59489253     0.02400
C1409       C  0.04821490  0.27455939  0.64553848     0.43800
C1410       C  0.11508050  0.37538190  0.68712411    -0.05900
N1411       N  0.16946266  0.29198750  0.64660703    -0.24700
H1412       H  0.14045105  0.30552889  0.71887940     0.07900
N1413       N  0.05155991  0.29192398  0.63011912    -0.45900
H1414       H  0.10364869  0.39002113  0.68440711     0.07900
C1415       C  0.20063553  0.36068336  0.63128375     0.43600
C1416       C  0.05261924  0.34776477  0.62135322    -0.05400
Co1417     Co  0.12345713  0.36163413  0.63241471     0.73800
N1418       N  0.13706839  0.34755275  0.70332913    -0.45600
C1419       C  0.12433397  0.26799137  0.56469846     0.43900
N1420       N  0.13057335  0.37095838  0.57766126    -0.45600
Co1421     Co  0.15330169  0.31913256  0.66374306     0.73900
C1422       C  0.19198377  0.28710703  0.64368899    -0.05900
C1423       C  0.07097923  0.26524542  0.65129229    -0.05500
N1424       N  0.10920098  0.34089145  0.58648011    -0.25000
N1425       N  0.11138302  0.26650962  0.68869765    -0.45800
H1426       H  0.14048921  0.24477823  0.59307915     0.07900
C1427       C  0.17883780  0.37247247  0.62365277    -0.05900
Cl1428     Cl  0.12251634  0.31902054  0.63496933    -0.48900
C1429       C  0.12373676  0.36548293  0.70948322     0.43600
H1430       H  0.09890700  0.33040422  0.55230025     0.07900
N1431       N  0.19371330  0.34260262  0.64390991    -0.45600
C1432       C  0.12336982  0.48471774  0.05810867     0.43500
N1433       N  0.13089885  0.47930114  0.09399758     0.02400
C1434       C  0.17864905  0.38254730  0.14479897    -0.05500
H1435       H  0.10283854  0.36825310  0.08496898     0.07900
C1436       C  0.05587300  0.42211844  0.14793066    -0.05800
Co1437     Co  0.15699440  0.43609833  0.10248013     0.74200
N1438       N  0.12431453  0.39616886  0.09828041    -0.25000
Co1439     Co  0.12378195  0.39735406  0.13581629     0.74100
C1440       C  0.04846940  0.40194328  0.13557926     0.43600
N1441       N  0.08411310  0.47096811  0.14295998     0.02000
N1442       N  0.08622239  0.40251201  0.13680990     0.02100
N1443       N  0.19507693  0.40875692  0.12116024    -0.45900
H1444       H  0.14277593  0.45136305  0.04763880     0.07900
N1445       N  0.13732945  0.41138712  0.08709154     0.02400
N1446       N  0.12333203  0.40063464  0.17321009     0.02100
C1447       C  0.12330175  0.39618241  0.21054595     0.43700
N1448       N  0.09654796  0.48517888  0.13028199    -0.24500
C1449       C  0.20017046  0.46293872  0.12114765    -0.05400
N1450       N  0.12059332  0.49366645  0.07948494    -0.45600
N1451       N  0.12965488  0.38594133  0.19009626    -0.45800
C1452       C  0.20315375  0.48359145  0.13542085     0.43500
N1453       N  0.17245743  0.41081780  0.12140668     0.02400
N1454       N  0.13258223  0.48419683  0.16519209    -0.24500
N1455       N  0.14050882  0.46154689  0.08349298    -0.25000
N1456       N  0.12052211  0.46966028  0.17791230     0.02000
H1457       H  0.15333303  0.51390529  0.17334726     0.07900
H1458       H  0.10560253  0.43104639  0.21642580     0.07900
N1459       N  0.16160783  0.39567796  0.13482404    -0.25000
N1460       N  0.07880847  0.42130765  0.14757389    -0.24700
N1461       N  0.16713717  0.47851611  0.12922497     0.02400
C1462       C  0.12348274  0.39146315  0.05922639     0.43800
C1463       C  0.08247744  0.50001746  0.11940277    -0.05900
N1464       N  0.11385800  0.41954370  0.18199265    -0.24700
H1465       H  0.04560110  0.43521930  0.15653527     0.07900
N1466       N  0.13727734  0.40909818  0.06443779    -0.45900
H1467       H  0.08806365  0.51406245  0.10835889     0.07900
C1468       C  0.13609828  0.49245340  0.20246138     0.43600
C1469       C  0.13691389  0.46349015  0.06063016    -0.05400
Co1470     Co  0.13187491  0.48231023  0.12958451     0.73800
N1471       N  0.06172630  0.47520744  0.14150492    -0.45600
C1472       C  0.20109163  0.39146574  0.13520646     0.43900
N1473       N  0.18198322  0.49245279  0.13939654    -0.45600
Co1474     Co  0.09932299  0.44541745  0.16277434     0.73900
C1475       C  0.11313884  0.41825095  0.20498212    -0.05900
C1476       C  0.11448577  0.38254889  0.08175031    -0.05500
N1477       N  0.17713346  0.46102516  0.11862291    -0.25000
N1478       N  0.06816193  0.38996021  0.12932598    -0.45800
H1479       H  0.17584188  0.36848692  0.15692473     0.07900
C1480       C  0.14315886  0.49928271  0.17910553    -0.05900
Cl1481     Cl  0.12797489  0.43986091  0.13271009    -0.48900
C1482       C  0.05929128  0.49303385  0.12664145     0.43600
H1483       H  0.21305536  0.45120377  0.11428904     0.07900
N1484       N  0.12187368  0.47414054  0.20026467    -0.45600
C1485       C  0.45240640  0.38355816  0.14772492     0.43500
N1486       N  0.41529955  0.38379433  0.15378740     0.02400
C1487       C  0.36541380  0.43295904  0.25052613    -0.05500
H1488       H  0.42446421  0.36063435  0.26587783     0.07900
C1489       C  0.37137383  0.31258071  0.22625333    -0.05800
Co1490     Co  0.40728266  0.41242544  0.19627633     0.74200
N1491       N  0.41343623  0.38269170  0.23768315    -0.25000
Co1492     Co  0.37762098  0.38263020  0.23826274     0.74100
C1493       C  0.38615731  0.31198687  0.24690003     0.43600
N1494       N  0.36675200  0.33473800  0.17126307     0.02000
N1495       N  0.37839708  0.34718208  0.23817755     0.02100
N1496       N  0.38605206  0.45242381  0.22338598    -0.45900
H1497       H  0.45937608  0.40498240  0.18013623     0.07900
N1498       N  0.42483700  0.39399666  0.22149910     0.02400
N1499       N  0.34178854  0.38208026  0.23768519     0.02100
C1500       C  0.30578251  0.38728806  0.24512083     0.43700
N1501       N  0.37755335  0.34504680  0.15384378    -0.24500
C1502       C  0.39049981  0.45284832  0.16831892    -0.05400
N1503       N  0.43160913  0.37591519  0.13921426    -0.45600
N1504       N  0.32742459  0.39254617  0.25217025    -0.45800
C1505       C  0.37702983  0.45731999  0.14797141     0.43500
N1506       N  0.38862732  0.42973604  0.22139718     0.02400
N1507       N  0.34020062  0.38107885  0.15426614    -0.24500
N1508       N  0.42484813  0.39542470  0.17099062    -0.25000
N1509       N  0.33074467  0.36896470  0.17130323     0.02000
H1510       H  0.32410558  0.39960217  0.12564021     0.07900
H1511       H  0.29497840  0.36390150  0.21472412     0.07900
N1512       N  0.37698500  0.41811426  0.23717260    -0.25000
N1513       N  0.36775099  0.33516648  0.22214274    -0.24700
N1514       N  0.37807210  0.42022675  0.15405424     0.02400
C1515       C  0.45113325  0.37667519  0.24098149     0.43800
C1516       C  0.38548051  0.32783141  0.13979765    -0.05900
N1517       N  0.33094043  0.37006290  0.22175126    -0.24700
H1518       H  0.36420325  0.29864543  0.21614493     0.07900
N1519       N  0.44752595  0.39121570  0.22303749    -0.45900
H1520       H  0.39478941  0.33046466  0.12372871     0.07900
C1521       C  0.30065640  0.38042105  0.15246836     0.43600
C1522       C  0.44763319  0.39611514  0.16862215    -0.05400
Co1523     Co  0.37771338  0.38257388  0.15269677     0.73800
N1524       N  0.36659343  0.31197340  0.17001731    -0.45600
C1525       C  0.37110168  0.45553832  0.24105284     0.43900
N1526       N  0.36933535  0.43641939  0.13980895    -0.45600
Co1527     Co  0.34898219  0.35202101  0.19657133     0.73900
C1528       C  0.30811299  0.37210073  0.22510409    -0.05900
C1529       C  0.42863773  0.37134783  0.25105824    -0.05500
N1530       N  0.39009894  0.42998008  0.17089284    -0.25000
N1531       N  0.38937011  0.33410323  0.25333910    -0.45800
H1532       H  0.35464848  0.42849708  0.26522221     0.07900
C1533       C  0.32228551  0.38919942  0.14115956    -0.05900
Cl1534     Cl  0.37786497  0.38243317  0.19553460    -0.48900
C1535       C  0.37801384  0.30564461  0.15088098     0.43600
H1536       H  0.39947330  0.46493787  0.17941632     0.07900
N1537       N  0.30799304  0.36814886  0.17068521    -0.45600
C1538       C  0.69530997  0.62581625  0.49514223     0.43500
N1539       N  0.65972980  0.61977884  0.48685097     0.02400
C1540       C  0.61676443  0.57439707  0.38574186    -0.05500
H1541       H  0.67633064  0.65073011  0.37625251     0.07900
C1542       C  0.60823872  0.69610196  0.42615868    -0.05800
Co1543     Co  0.65494950  0.59533901  0.44218275     0.74200
N1544       N  0.66148807  0.62919752  0.40347980    -0.25000
Co1545     Co  0.62390532  0.62876434  0.40203924     0.74100
C1546       C  0.62132692  0.70389176  0.40632112     0.43600
N1547       N  0.61021270  0.66658430  0.47609103     0.02000
N1548       N  0.62151032  0.66608104  0.40753158     0.02100
N1549       N  0.63966948  0.55772920  0.41245138    -0.45900
H1550       H  0.70757844  0.60725298  0.46202418     0.07900
N1551       N  0.67181071  0.61647973  0.41956710     0.02400
N1552       N  0.58652964  0.62813024  0.40297326     0.02100
C1553       C  0.54976480  0.62749203  0.39588616     0.43700
N1554       N  0.62217549  0.65369516  0.49064382    -0.24500
C1555       C  0.63492638  0.55098696  0.46560047    -0.05400
N1556       N  0.67337144  0.62903524  0.50269492    -0.45600
N1557       N  0.57098919  0.62146777  0.38715822    -0.45800
C1558       C  0.61918259  0.54675153  0.48489332     0.43500
N1559       N  0.63882233  0.58029190  0.41498123     0.02400
N1560       N  0.58827252  0.61710971  0.48627724    -0.24500
N1561       N  0.67140896  0.61069902  0.46956814    -0.25000
N1562       N  0.57620350  0.62960300  0.47151268     0.02000
H1563       H  0.57901730  0.59485459  0.51458352     0.07900
H1564       H  0.54087451  0.64486999  0.43024702     0.07900
N1565       N  0.62588931  0.59123760  0.39953938    -0.25000
N1566       N  0.60946464  0.67312853  0.42571823    -0.24700
N1567       N  0.62508246  0.58311045  0.48201260     0.02400
C1568       C  0.70087447  0.63135752  0.40185751     0.43800
C1569       C  0.63148543  0.66721262  0.50680151    -0.05900
N1570       N  0.57615462  0.63734442  0.42120475    -0.24700
H1571       H  0.59829670  0.70600647  0.43856807     0.07900
N1572       N  0.69454888  0.61724606  0.41903580    -0.45900
H1573       H  0.64162132  0.66130063  0.52142406     0.07900
C1574       C  0.55069783  0.61229816  0.49226442     0.43600
C1575       C  0.69404140  0.61334197  0.47331909    -0.05400
Co1576     Co  0.62387642  0.61837850  0.48697011     0.73800
N1577       N  0.61051036  0.68881740  0.48150711    -0.45600
C1578       C  0.62645909  0.55193091  0.39454162     0.43900
N1579       N  0.61411238  0.56738780  0.49446771    -0.45600
Co1580     Co  0.59283774  0.65176682  0.44865943     0.73900
C1581       C  0.55337658  0.63769785  0.41824900    -0.05900
C1582       C  0.67877542  0.63935602  0.39099572    -0.05500
N1583       N  0.63718640  0.57408867  0.46495509    -0.25000
N1584       N  0.62893131  0.68430503  0.39507833    -0.45800
H1585       H  0.60502242  0.57735002  0.37142609     0.07900
C1586       C  0.57378519  0.60552914  0.50007015    -0.05900
Cl1587     Cl  0.62389125  0.62369595  0.44458974    -0.48900
C1588       C  0.62396423  0.69045533  0.50046437     0.43600
H1589       H  0.64299867  0.53877628  0.45393631     0.07900
N1590       N  0.55362493  0.62759124  0.47473218    -0.45600
C1591       C  0.61136008  0.30107265  0.39006789     0.43500
N1592       N  0.60457901  0.33800222  0.38870287     0.02400
C1593       C  0.50049866  0.38496525  0.42555226    -0.05500
H1594       H  0.49665709  0.32905010  0.35211669     0.07900
C1595       C  0.54272527  0.38610980  0.30942906    -0.05800
Co1596     Co  0.55900682  0.34576123  0.41214253     0.74200
N1597       N  0.52239505  0.33946811  0.37664515    -0.25000
Co1598     Co  0.52087471  0.37503081  0.37689232     0.74100
C1599       C  0.52322713  0.37088996  0.30470764     0.43600
N1600       N  0.59296684  0.38942603  0.33894198     0.02000
N1601       N  0.52636153  0.37554573  0.34141388     0.02100
N1602       N  0.52637318  0.36608878  0.44815951    -0.45900
H1603       H  0.57714669  0.29361727  0.40831584     0.07900
N1604       N  0.53672662  0.32805060  0.39018957     0.02400
N1605       N  0.52047650  0.41071042  0.37739747     0.02100
C1606       C  0.51079896  0.44600907  0.38260343     0.43700
N1607       N  0.60801806  0.37629460  0.35022174    -0.24500
C1608       C  0.58196706  0.36225082  0.45604507    -0.05400
N1609       N  0.62015865  0.32186608  0.38266192    -0.45600
N1610       N  0.50391693  0.42398156  0.38595434    -0.45800
C1611       C  0.60271963  0.37428064  0.46301253     0.43500
N1612       N  0.53142916  0.36392400  0.42593340     0.02400
N1613       N  0.60407685  0.41330436  0.38727807    -0.24500
N1614       N  0.58643286  0.32831182  0.39872311    -0.25000
N1615       N  0.58791625  0.42330572  0.37444151     0.02000
H1616       H  0.63124234  0.42879290  0.40814699     0.07900
H1617       H  0.54377680  0.45922632  0.36454495     0.07900
N1618       N  0.51660353  0.37473099  0.41240856    -0.25000
N1619       N  0.54335204  0.38780836  0.33255384    -0.24700
N1620       N  0.60033828  0.37424838  0.42527306     0.02400
C1621       C  0.51869878  0.30161470  0.37135744     0.43800
C1622       C  0.62144937  0.36611631  0.33358958    -0.05900
N1623       N  0.53770395  0.42265378  0.36853712    -0.24700
H1624       H  0.55429283  0.39470390  0.29746571     0.07900
N1625       N  0.53482466  0.30532129  0.38789243    -0.45900
H1626       H  0.63536373  0.35395049  0.33679417     0.07900
C1627       C  0.60562457  0.45294612  0.38813211     0.43600
C1628       C  0.58922866  0.30556020  0.40039010    -0.05400
Co1629     Co  0.60557408  0.37551289  0.38788103     0.73800
N1630       N  0.59548584  0.38950976  0.31630321    -0.45600
C1631       C  0.50725361  0.37948423  0.44936270     0.43900
N1632       N  0.61366857  0.38110670  0.44298584    -0.45600
Co1633     Co  0.56564809  0.40598779  0.35364253     0.73900
C1634       C  0.53304530  0.44527141  0.37069957    -0.05900
C1635       C  0.51026217  0.32439898  0.36412040    -0.05500
N1636       N  0.58186852  0.36310929  0.43299172    -0.25000
N1637       N  0.51372525  0.36530776  0.32537605    -0.45800
H1638       H  0.48597297  0.39480254  0.41898850     0.07900
C1639       C  0.61646491  0.43095959  0.39683544    -0.05900
Cl1640     Cl  0.56299018  0.37559693  0.38274401    -0.48900
C1641       C  0.61295696  0.37546771  0.31089963     0.43600
H1642       H  0.56966190  0.35274203  0.46650197     0.07900
N1643       N  0.58840763  0.44606922  0.37445325    -0.45600
C1644       C  0.27100956  0.04831763  0.64326244     0.43500
N1645       N  0.27426554  0.08421285  0.63435456     0.02400
C1646       C  0.36660707  0.13651723  0.57983228    -0.05500
H1647       H  0.38618289  0.07783333  0.65478662     0.07900
C1648       C  0.33660322  0.14085017  0.70418352    -0.05800
Co1649     Co  0.31499925  0.09360384  0.60460037     0.74200
N1650       N  0.35690202  0.09062695  0.63466916    -0.25000
Co1651     Co  0.35450631  0.12820106  0.63458474     0.74100
C1652       C  0.35821091  0.12932190  0.70887264     0.43600
N1653       N  0.28369420  0.13369358  0.68017877     0.02000
N1654       N  0.35236611  0.12940498  0.67186826     0.02100
N1655       N  0.34065268  0.11196861  0.56418804    -0.45900
H1656       H  0.30276622  0.03851172  0.62111896     0.07900
N1657       N  0.34138604  0.07909579  0.62251372     0.02400
N1658       N  0.34998835  0.16567453  0.63472603     0.02100
C1659       C  0.35343640  0.20320003  0.63372110     0.43700
N1660       N  0.26934351  0.12068819  0.66835589    -0.24500
C1661       C  0.28496863  0.11076338  0.56339715    -0.05400
N1662       N  0.26151636  0.06945926  0.64630411    -0.45600
N1663       N  0.36372688  0.18280166  0.62713452    -0.45800
C1664       C  0.26350080  0.12389658  0.56138403     0.43500
N1665       N  0.33877832  0.11287174  0.58692924     0.02400
N1666       N  0.26670562  0.15529542  0.63183058    -0.24500
N1667       N  0.29148242  0.07411021  0.62339644    -0.25000
N1668       N  0.28123874  0.16862577  0.64311833     0.02000
H1669       H  0.23693486  0.16215450  0.61079660     0.07900
H1670       H  0.32021824  0.20857819  0.65448404     0.07900
N1671       N  0.35392421  0.12670661  0.59709513    -0.25000
N1672       N  0.33431442  0.13997278  0.68127936    -0.24700
N1673       N  0.27100022  0.11875885  0.59721057     0.02400
C1674       C  0.36278901  0.05150174  0.63522702     0.43800
C1675       C  0.25477610  0.11022336  0.68288267    -0.05900
N1676       N  0.33172533  0.17419322  0.64569557    -0.24700
H1677       H  0.32447981  0.14874474  0.71611004     0.07900
N1678       N  0.34437950  0.05656576  0.62234553    -0.45900
H1679       H  0.24042022  0.09957055  0.67756656     0.07900
C1680       C  0.25801543  0.19237984  0.62639088     0.43600
C1681       C  0.29074431  0.05128343  0.62770800    -0.05400
Co1682     Co  0.26983601  0.11967398  0.63287909     0.73800
N1683       N  0.27934674  0.13312677  0.70272305    -0.45600
C1684       C  0.35777788  0.12616613  0.55800083     0.43900
N1685       N  0.25569904  0.12805639  0.58297740    -0.45600
Co1686     Co  0.30767115  0.15429870  0.66275901     0.73900
C1687       C  0.33249583  0.19728852  0.64590425    -0.05900
C1688       C  0.37133958  0.07430397  0.64395642    -0.05500
N1689       N  0.28828191  0.10870963  0.58628461    -0.25000
N1690       N  0.36717856  0.12213557  0.68814984    -0.45800
H1691       H  0.38066538  0.14862819  0.58218666     0.07900
C1692       C  0.25124667  0.16862300  0.62086249    -0.05900
Cl1693     Cl  0.31213756  0.12408760  0.63368808    -0.48900
C1694       C  0.26147775  0.11828152  0.70582868     0.43600
H1695       H  0.29639156  0.10427035  0.54999780     0.07900
N1696       N  0.27654687  0.19091806  0.64056074    -0.45600
C1697       C  0.35684487  0.62998170  0.05807772     0.43500
N1698       N  0.35291326  0.62881462  0.09546112     0.02400
C1699       C  0.25792353  0.57850329  0.14881165    -0.05500
H1700       H  0.23917489  0.64996567  0.09329246     0.07900
C1701       C  0.28453282  0.69986646  0.14392033    -0.05800
Co1702     Co  0.31097000  0.60020626  0.10567126     0.74200
N1703       N  0.26921583  0.62975227  0.10198818    -0.25000
Co1704     Co  0.27079286  0.62981367  0.13758423     0.74100
C1705       C  0.26336175  0.70111559  0.13018549     0.43600
N1706       N  0.33877008  0.67750205  0.14570051     0.02000
N1707       N  0.27140925  0.66556061  0.13707990     0.02100
N1708       N  0.28469236  0.56005865  0.12701865    -0.45900
H1709       H  0.32439452  0.60828157  0.05235761     0.07900
N1710       N  0.28476562  0.61868079  0.08956180     0.02400
N1711       N  0.27367005  0.62997700  0.17300111     0.02100
C1712       C  0.26789829  0.62412202  0.20907156     0.43700
N1713       N  0.35504003  0.66729930  0.13316258    -0.24500
C1714       C  0.33836140  0.55963705  0.12257978    -0.05400
N1715       N  0.36642976  0.63721532  0.07853338    -0.45600
N1716       N  0.25980698  0.61936987  0.18774160    -0.45800
C1717       C  0.35888780  0.55487906  0.13559423     0.43500
N1718       N  0.28680626  0.58277468  0.12546594     0.02400
N1719       N  0.35703292  0.63115920  0.17044834    -0.24500
N1720       N  0.33530944  0.61720293  0.08669045    -0.25000
N1721       N  0.34043427  0.64291940  0.18098283     0.02000
H1722       H  0.38724742  0.61370514  0.18469252     0.07900
H1723       H  0.29877063  0.64706985  0.21914728     0.07900
N1724       N  0.27132751  0.59398173  0.13784967    -0.25000
N1725       N  0.28814940  0.67715313  0.14715455    -0.24700
N1726       N  0.35454017  0.59212854  0.13272419     0.02400
C1727       C  0.26229365  0.63437187  0.06460987     0.43800
C1728       C  0.36809062  0.68459155  0.12385298    -0.05900
N1729       N  0.29017966  0.64168932  0.18329450    -0.24700
H1730       H  0.29545713  0.71358680  0.15033602     0.07900
N1731       N  0.28109332  0.62065931  0.06702747    -0.45900
H1732       H  0.38311615  0.68217697  0.11289329     0.07900
C1733       C  0.36163095  0.63244775  0.20977919     0.43600
C1734       C  0.33642968  0.61696905  0.06372030    -0.05400
Co1735     Co  0.35615095  0.62978465  0.13287161     0.73800
N1736       N  0.34007793  0.70026998  0.14610209    -0.45600
C1737       C  0.26710603  0.55592817  0.14175289     0.43900
N1738       N  0.36856484  0.57573724  0.14148697    -0.45600
Co1739     Co  0.31441273  0.65997680  0.16439080     0.73900
C1740       C  0.28790579  0.63918883  0.20622432    -0.05900
C1741       C  0.25413061  0.64010407  0.08782188    -0.05500
N1742       N  0.33687291  0.58256336  0.12182444    -0.25000
N1743       N  0.25614615  0.67919507  0.12686254    -0.45800
H1744       H  0.24326057  0.58261343  0.15974897     0.07900
C1745       C  0.37155758  0.62358797  0.18749770    -0.05900
Cl1746     Cl  0.31329696  0.62995322  0.13510640    -0.48900
C1747       C  0.35800906  0.70658633  0.13292803     0.43600
H1748       H  0.32642664  0.54761961  0.11468228     0.07900
N1749       N  0.34262771  0.64408586  0.20361722    -0.45600
C1750       C  0.39184336  0.13491114  0.05605607     0.43500
N1751       N  0.39618352  0.13393214  0.09362405     0.02400
C1752       C  0.49445973  0.17694709  0.14696759    -0.05500
H1753       H  0.50734138  0.10391508  0.09192014     0.07900
C1754       C  0.46037726  0.05819616  0.14493145    -0.05800
Co1755     Co  0.43988329  0.15949878  0.10431466     0.74200
N1756       N  0.47942328  0.12687543  0.10089908    -0.25000
Co1757     Co  0.47807675  0.12713463  0.13648581     0.74100
C1758       C  0.48084147  0.05536590  0.13040048     0.43600
N1759       N  0.40781962  0.08436139  0.14478295     0.02000
N1760       N  0.47531657  0.09147852  0.13660979     0.02100
N1761       N  0.46883383  0.19762431  0.12570282    -0.45900
H1762       H  0.42607613  0.15401733  0.05101678     0.07900
N1763       N  0.46467307  0.13912761  0.08858051     0.02400
N1764       N  0.47551717  0.12763320  0.17206934     0.02100
C1765       C  0.48178030  0.13411545  0.20795619     0.43700
N1766       N  0.39206790  0.09534994  0.13218191    -0.24500
C1767       C  0.41354238  0.20191826  0.11867821    -0.05400
N1768       N  0.38186244  0.12762729  0.07647893    -0.45600
N1769       N  0.49005137  0.13776897  0.18643244    -0.45800
C1770       C  0.39208709  0.20783435  0.12993653     0.43500
N1771       N  0.46498049  0.17514261  0.12417531     0.02400
N1772       N  0.39233619  0.13242396  0.16912566    -0.24500
N1773       N  0.41463664  0.14437674  0.08502575    -0.25000
N1774       N  0.40788992  0.11939580  0.17985041     0.02000
H1775       H  0.36498694  0.15416659  0.18344023     0.07900
H1776       H  0.44942784  0.11350377  0.21896622     0.07900
N1777       N  0.47977481  0.16273081  0.13626755    -0.25000
N1778       N  0.45812298  0.08117358  0.14736455    -0.24700
N1779       N  0.39638907  0.17042279  0.13040539     0.02400
C1780       C  0.48501846  0.12115533  0.06346077     0.43800
C1781       C  0.37862161  0.07858550  0.12247319    -0.05900
N1782       N  0.45826328  0.11731121  0.18276242    -0.24700
H1783       H  0.44895977  0.04534910  0.15225848     0.07900
N1784       N  0.46754713  0.13642165  0.06605435    -0.45900
H1785       H  0.36408913  0.08165190  0.11104753     0.07900
C1786       C  0.38882477  0.13333325  0.20866211     0.43600
C1787       C  0.41340716  0.14572536  0.06206044    -0.05400
Co1788     Co  0.39290299  0.13302719  0.13134160     0.73800
N1789       N  0.40617058  0.06162432  0.14427319    -0.45600
C1790       C  0.48694717  0.20014369  0.14015223     0.43900
N1791       N  0.38216655  0.18748965  0.13719410    -0.45600
Co1792     Co  0.43290637  0.10040315  0.16385706     0.73900
C1793       C  0.46082163  0.12021391  0.20566572    -0.05900
C1794       C  0.49327270  0.11508910  0.08658861    -0.05500
N1795       N  0.41476255  0.17896571  0.11974882    -0.25000
N1796       N  0.48938164  0.07670267  0.12627780    -0.45800
H1797       H  0.50897410  0.17151881  0.15752006     0.07900
C1798       C  0.37934611  0.14239864  0.18622398    -0.05900
Cl1799     Cl  0.43552455  0.13002765  0.13396529    -0.48900
C1800       C  0.38848591  0.05600861  0.13054711     0.43600
H1801       H  0.42614133  0.21302426  0.11038208     0.07900
N1802       N  0.40626066  0.11946374  0.20256965    -0.45600
C1803       C  0.30209168  0.24173117  0.39228696     0.43500
N1804       N  0.33816992  0.23447491  0.38723913     0.02400
C1805       C  0.38434621  0.13950421  0.33001900    -0.05500
H1806       H  0.32206401  0.12042431  0.39835389     0.07900
C1807       C  0.38629093  0.16434003  0.45608483    -0.05800
Co1808     Co  0.34625583  0.19443162  0.35607896     0.74200
N1809       N  0.33783952  0.15089813  0.38286596    -0.25000
Co1810     Co  0.37536967  0.15006270  0.38527864     0.74100
C1811       C  0.37165592  0.14481549  0.46025705     0.43600
N1812       N  0.38412203  0.21694898  0.43500540     0.02000
N1813       N  0.37479770  0.15026723  0.42308412     0.02100
N1814       N  0.36472363  0.16978136  0.31522776    -0.45900
H1815       H  0.29164800  0.21186438  0.36795111     0.07900
N1816       N  0.32824727  0.16841685  0.37156404     0.02400
N1817       N  0.41303254  0.15157627  0.38732535     0.02100
C1818       C  0.45016775  0.14532704  0.38753545     0.43700
N1819       N  0.37243146  0.23314210  0.42398719    -0.24500
C1820       C  0.36923812  0.22435252  0.31803115    -0.05400
N1821       N  0.32366291  0.24864294  0.39784678    -0.45600
N1822       N  0.42949420  0.13747998  0.37894679    -0.45800
C1823       C  0.38422731  0.24466457  0.31764609     0.43500
N1824       N  0.36464688  0.17008195  0.33803905     0.02400
N1825       N  0.40949381  0.23558447  0.38951638    -0.24500
N1826       N  0.32756702  0.21878717  0.37471458    -0.25000
N1827       N  0.42124810  0.21908066  0.40003895     0.02000
H1828       H  0.41955822  0.26483401  0.36869244     0.07900
H1829       H  0.45695841  0.17636937  0.41091370     0.07900
N1830       N  0.37584979  0.15256878  0.34775952    -0.25000
N1831       N  0.38674576  0.16682114  0.43331707    -0.24700
N1832       N  0.37533840  0.23652430  0.35278237     0.02400
C1833       C  0.29848480  0.14785023  0.38014008     0.43800
C1834       C  0.36027619  0.24548482  0.43936686    -0.05900
N1835       N  0.42237914  0.16820467  0.39993599    -0.24700
H1836       H  0.39513102  0.17532091  0.46835423     0.07900
N1837       N  0.30560913  0.16714426  0.36959046    -0.45900
H1838       H  0.34933097  0.26019955  0.43544768     0.07900
C1839       C  0.44690904  0.23967664  0.38323846     0.43600
C1840       C  0.30467111  0.22203037  0.37661380    -0.05400
Co1841     Co  0.37384048  0.23560677  0.38848976     0.73800
N1842       N  0.38086250  0.21760110  0.45766371    -0.45600
C1843       C  0.37675349  0.15130439  0.30816338     0.43900
N1844       N  0.38690146  0.25143793  0.33983860    -0.45600
Co1845     Co  0.40388495  0.19281354  0.41718344     0.73900
C1846       C  0.44522804  0.16550969  0.40120984    -0.05900
C1847       C  0.32010206  0.13668242  0.38919167    -0.05500
N1848       N  0.36494096  0.22054864  0.34046965    -0.25000
N1849       N  0.36504955  0.13633713  0.43902115    -0.45800
H1850       H  0.39401640  0.12355341  0.33209280     0.07900
C1851       C  0.42425022  0.24975695  0.37881555    -0.05900
Cl1852     Cl  0.37484974  0.19298925  0.38673481    -0.48900
C1853       C  0.36563144  0.23485121  0.46164531     0.43600
H1854       H  0.36253983  0.21401953  0.30405507     0.07900
N1855       N  0.44390136  0.22094879  0.39693807    -0.45600
C1856       C  0.54762463  0.85754237  0.63495399     0.43500
N1857       N  0.58483812  0.85388114  0.63426471     0.02400
C1858       C  0.63706284  0.75473240  0.59125791    -0.05500
H1859       H  0.58657334  0.74146621  0.66498286     0.07900
C1860       C  0.63934150  0.79185171  0.70895371    -0.05800
Co1861     Co  0.59495740  0.80959946  0.60944205     0.74200
N1862       N  0.59372877  0.77045561  0.64271183    -0.25000
Co1863     Co  0.62934700  0.77280162  0.64081869     0.74100
C1864       C  0.62577500  0.77098584  0.71252418     0.43600
N1865       N  0.63719336  0.84403305  0.68190165     0.02000
N1866       N  0.63061666  0.77610985  0.67625914     0.02100
N1867       N  0.61370959  0.77900043  0.57106200    -0.45900
H1868       H  0.54190866  0.82297971  0.61701354     0.07900
N1869       N  0.58048372  0.78485198  0.63099286     0.02400
N1870       N  0.66501939  0.77654439  0.63885985     0.02100
C1871       C  0.70114373  0.77211809  0.63211683     0.43700
N1872       N  0.62370337  0.85931075  0.67137106    -0.24500
C1873       C  0.60898359  0.83430507  0.56590842    -0.05400
N1874       N  0.56786691  0.86831131  0.64080237    -0.45600
N1875       N  0.68007091  0.76265529  0.62855704    -0.45800
C1876       C  0.62114599  0.85489610  0.55878362     0.43500
N1877       N  0.61419868  0.78423980  0.59332881     0.02400
N1878       N  0.65955061  0.85961852  0.63329355    -0.24500
N1879       N  0.57617283  0.83492395  0.62489228    -0.25000
N1880       N  0.67106345  0.84427953  0.64589084     0.02000
H1881       H  0.67229984  0.88756453  0.61127578     0.07900
H1882       H  0.71055571  0.80471823  0.65278178     0.07900
N1883       N  0.62747295  0.77022119  0.60543542    -0.25000
N1884       N  0.64100393  0.79384904  0.68590374    -0.24700
N1885       N  0.62037117  0.85312165  0.59647164     0.02400
C1886       C  0.55663304  0.76266407  0.64878713     0.43800
C1887       C  0.61400290  0.87234988  0.68855903    -0.05900
N1888       N  0.67505632  0.79426504  0.64894133    -0.24700
H1889       H  0.64649733  0.80362505  0.72148459     0.07900
N1890       N  0.55820179  0.78063361  0.63385740    -0.45900
H1891       H  0.60187527  0.88642805  0.68590062     0.07900
C1892       C  0.69868589  0.86393430  0.63071579     0.43600
C1893       C  0.55324290  0.83576620  0.62463161    -0.05400
Co1894     Co  0.62204941  0.85787926  0.63376419     0.73800
N1895       N  0.63759474  0.84580004  0.70455157    -0.45600
C1896       C  0.62810761  0.76081166  0.56841542     0.43900
N1897       N  0.62757187  0.86622649  0.57865574    -0.45600
Co1898     Co  0.65616866  0.81921261  0.66577690     0.73900
C1899       C  0.69792067  0.79277323  0.64600156    -0.05900
C1900       C  0.58030745  0.75568789  0.65447114    -0.05500
N1901       N  0.60964947  0.83441101  0.58888226    -0.25000
N1902       N  0.62120262  0.76192780  0.69155739    -0.45800
H1903       H  0.64782447  0.74033631  0.59665665     0.07900
C1904       C  0.67583842  0.87325661  0.62291075    -0.05900
Cl1905     Cl  0.62558983  0.81526427  0.63736891    -0.48900
C1906       C  0.62356634  0.86299254  0.71084915     0.43600
H1907       H  0.60020945  0.82142298  0.55561747     0.07900
N1908       N  0.69369675  0.84636015  0.64486668    -0.45600
C1909       C  0.14525145  0.30515490  0.38124000     0.43500
N1910       N  0.14737657  0.34270886  0.38111460     0.02400
C1911       C  0.24241260  0.40142127  0.33685727    -0.05500
H1912       H  0.25904205  0.34522038  0.40868237     0.07900
C1913       C  0.20977125  0.39544678  0.45633103    -0.05800
Co1914     Co  0.18999968  0.35588222  0.35448674     0.74200
N1915       N  0.23034091  0.35355411  0.38635840    -0.25000
Co1916     Co  0.22668388  0.38921109  0.38682775     0.74100
C1917       C  0.23145913  0.38284298  0.45847441     0.43600
N1918       N  0.15665628  0.39219639  0.43130236     0.02000
N1919       N  0.22453342  0.38840428  0.42258868     0.02100
N1920       N  0.21799410  0.37921529  0.31604286    -0.45900
H1921       H  0.17920772  0.30154027  0.36114537     0.07900
N1922       N  0.21616657  0.34083338  0.37396562     0.02400
N1923       N  0.22161615  0.42462701  0.38717133     0.02100
C1924       C  0.22532102  0.46104491  0.38165397     0.43700
N1925       N  0.14138670  0.37935596  0.42011606    -0.24500
C1926       C  0.16187613  0.37041909  0.31294467    -0.05400
N1927       N  0.13427326  0.32499576  0.38832850    -0.45600
N1928       N  0.23490202  0.44024395  0.37708073    -0.45800
C1929       C  0.13969841  0.38068376  0.30806733     0.43500
N1930       N  0.21392159  0.37738511  0.33854426     0.02400
N1931       N  0.13902773  0.41729247  0.38426610    -0.24500
N1932       N  0.16602428  0.33509440  0.37018114    -0.25000
N1933       N  0.15390376  0.42833952  0.39764281     0.02000
H1934       H  0.11058797  0.43081033  0.36344706     0.07900
H1935       H  0.19299129  0.46927175  0.40355015     0.07900
N1936       N  0.22808762  0.38997928  0.35104056    -0.25000
N1937       N  0.20680795  0.39775715  0.43343616    -0.24700
N1938       N  0.14479110  0.37995398  0.34523816     0.02400
C1939       C  0.23835974  0.31614669  0.39068858     0.43800
C1940       C  0.12855710  0.36835024  0.43660406    -0.05900
N1941       N  0.20399538  0.43388617  0.39830513    -0.24700
H1942       H  0.19814019  0.40166885  0.46964041     0.07900
N1943       N  0.22048237  0.31841779  0.37586310    -0.45900
H1944       H  0.11460980  0.35633170  0.43330893     0.07900
C1945       C  0.13267592  0.45634279  0.38543592     0.43600
C1946       C  0.16612558  0.31207525  0.36946802    -0.05400
Co1947     Co  0.14187982  0.37978914  0.38260612     0.73800
N1948       N  0.15530162  0.39068210  0.45402471    -0.45600
C1949       C  0.23553994  0.39444592  0.31350654     0.43900
N1950       N  0.12980511  0.38657924  0.32880012    -0.45600
Co1951     Co  0.18025067  0.41312946  0.41532082     0.73900
C1952       C  0.20497768  0.45697433  0.39606847    -0.05900
C1953       C  0.24521090  0.33955621  0.39747303    -0.05500
N1954       N  0.16356580  0.37060897  0.33592922    -0.25000
N1955       N  0.23981769  0.37924572  0.43695675    -0.45800
H1956       H  0.25647631  0.41236035  0.34244135     0.07900
C1957       C  0.12484921  0.43392281  0.37516273    -0.05900
Cl1958     Cl  0.18432831  0.38446393  0.38473928    -0.48900
C1959       C  0.13825146  0.37599157  0.45920728     0.43600
H1960       H  0.17446251  0.36320138  0.30108703     0.07900
N1961       N  0.15062263  0.45083943  0.39883316    -0.45600
C1962       C  0.54976659  0.63249029  0.78031100     0.43500
N1963       N  0.58619145  0.63106785  0.78727626     0.02400
C1964       C  0.63758282  0.57561932  0.88066770    -0.05500
H1965       H  0.57371147  0.64567732  0.89963842     0.07900
C1966       C  0.63836622  0.70086758  0.85412738    -0.05800
Co1967     Co  0.59677015  0.60016460  0.82709703     0.74200
N1968       N  0.58944778  0.62808770  0.87021708    -0.25000
Co1969     Co  0.62705469  0.63031427  0.86962507     0.74100
C1970       C  0.62548203  0.70517999  0.87476242     0.43600
N1971       N  0.63306225  0.67958874  0.80191552     0.02000
N1972       N  0.62684479  0.66807080  0.86896218     0.02100
N1973       N  0.61761730  0.55993476  0.85118669    -0.45900
H1974       H  0.54173420  0.60812051  0.81085085     0.07900
N1975       N  0.57968007  0.61589004  0.85354583     0.02400
N1976       N  0.66438615  0.63175381  0.86615278     0.02100
C1977       C  0.70167789  0.62950687  0.86948607     0.43700
N1978       N  0.62051287  0.66842017  0.78663230    -0.24500
C1979       C  0.61546258  0.56226626  0.79360564    -0.05400
N1980       N  0.57069569  0.63979349  0.77279466    -0.45600
N1981       N  0.68121730  0.62232093  0.87906360    -0.45800
C1982       C  0.62746394  0.56273940  0.77127287     0.43500
N1983       N  0.61645508  0.58270935  0.85080742     0.02400
N1984       N  0.65746176  0.63411453  0.78229213    -0.24500
N1985       N  0.57676451  0.61813344  0.80349277    -0.25000
N1986       N  0.66993630  0.64502037  0.79784279     0.02000
H1987       H  0.66615857  0.61557434  0.75110572     0.07900
H1988       H  0.70763501  0.65241873  0.83770086     0.07900
N1989       N  0.62782074  0.59289151  0.86781673    -0.25000
N1990       N  0.63812467  0.67808406  0.85171635    -0.24700
N1991       N  0.62366999  0.59736412  0.78371625     0.02400
C1992       C  0.54994182  0.62592663  0.87363857     0.43800
C1993       C  0.60846118  0.68374759  0.77414619    -0.05900
N1994       N  0.67318552  0.64390297  0.84877722    -0.24700
H1995       H  0.64664174  0.71306340  0.84252691     0.07900
N1996       N  0.55706395  0.61428192  0.85505817    -0.45900
H1997       H  0.59731840  0.67952072  0.75974679     0.07900
C1998       C  0.69458161  0.63174413  0.77371823     0.43600
C1999       C  0.55381850  0.61799382  0.80060587    -0.05400
Co2000     Co  0.62188888  0.63286393  0.78448564     0.73800
N2001       N  0.63059480  0.70230934  0.80039424    -0.45600
C2002       C  0.63067586  0.55352516  0.86924397     0.43900
N2003       N  0.63189051  0.58508448  0.76637913    -0.45600
Co2004     Co  0.65384379  0.66174002  0.82508439     0.73900
C2005       C  0.69616310  0.64360318  0.84962843    -0.05900
C2006       C  0.57171277  0.63542580  0.88410678    -0.05500
N2007       N  0.61396996  0.58455904  0.79987448    -0.25000
N2008       N  0.61841048  0.68416814  0.88347946    -0.45800
H2009       H  0.64810236  0.57812862  0.89594540     0.07900
C2010       C  0.67151846  0.62504908  0.76631472    -0.05900
Cl2011     Cl  0.62489422  0.63127540  0.82677183    -0.48900
C2012       C  0.61499763  0.70631652  0.78347431     0.43600
H2013       H  0.60743795  0.54791446  0.80260311     0.07900
N2014       N  0.69236688  0.64453217  0.79312261    -0.45600
C2015       C  0.29862542  0.38007509  0.62345070     0.43500
N2016       N  0.33564805  0.38006825  0.61699650     0.02400
C2017       C  0.38085278  0.42101233  0.51326052    -0.05500
H2018       H  0.32467941  0.35063222  0.50530880     0.07900
C2019       C  0.38110920  0.30343290  0.55231508    -0.05800
Co2020     Co  0.34272537  0.40498368  0.57185779     0.74200
N2021       N  0.33574995  0.37171549  0.53378418    -0.25000
Co2022     Co  0.37137715  0.37158099  0.53259754     0.74100
C2023       C  0.36556847  0.29984169  0.53287263     0.43600
N2024       N  0.38556990  0.33013618  0.60366011     0.02000
N2025       N  0.37142188  0.33612856  0.53687440     0.02100
N2026       N  0.36160651  0.44252262  0.53974054    -0.45900
H2027       H  0.29092549  0.39943291  0.58988124     0.07900
N2028       N  0.32463412  0.38450348  0.54895956     0.02400
N2029       N  0.40701779  0.37174341  0.53239550     0.02100
C2030       C  0.44229078  0.37793514  0.52299147     0.43700
N2031       N  0.37366775  0.34140105  0.61971466    -0.24500
C2032       C  0.36012606  0.44743906  0.59423025    -0.05400
N2033       N  0.31955543  0.37288689  0.63216667    -0.45600
N2034       N  0.42019235  0.38130760  0.51635710    -0.45800
C2035       C  0.37358845  0.45448333  0.61374811     0.43500
N2036       N  0.36030497  0.42012918  0.54449636     0.02400
N2037       N  0.41112580  0.37769320  0.61634248    -0.24500
N2038       N  0.32578090  0.39050906  0.59911307    -0.25000
N2039       N  0.42065446  0.36504724  0.59977226     0.02000
H2040       H  0.42734404  0.39628670  0.64474317     0.07900
H2041       H  0.45561315  0.35851253  0.55539962     0.07900
N2042       N  0.37126765  0.40723490  0.52928637    -0.25000
N2043       N  0.38354943  0.32639955  0.55353482    -0.24700
N2044       N  0.37237756  0.41676711  0.61276282     0.02400
C2045       C  0.29783319  0.36921262  0.52854492     0.43800
C2046       C  0.36390884  0.32480793  0.63352392    -0.05900
N2047       N  0.41903001  0.36205078  0.54918053    -0.24700
H2048       H  0.38937606  0.29085402  0.56349979     0.07900
N2049       N  0.30193562  0.38388687  0.54621282    -0.45900
H2050       H  0.35257494  0.32808493  0.64810656     0.07900
C2051       C  0.45083571  0.37629270  0.61852662     0.43600
C2052       C  0.30301235  0.39146315  0.60181019    -0.05400
Co2053     Co  0.37327852  0.37913007  0.61786402     0.73800
N2054       N  0.38467640  0.30738704  0.60551472    -0.45600
C2055       C  0.37467537  0.44451191  0.52046218     0.43900
N2056       N  0.38053843  0.43464931  0.62513181    -0.45600
Co2057     Co  0.40239599  0.34585876  0.57658086     0.73900
C2058       C  0.44162421  0.36484305  0.54470414    -0.05900
C2059       C  0.32037373  0.36125774  0.52014539    -0.05500
N2060       N  0.36049502  0.42453367  0.59474360    -0.25000
N2061       N  0.36051524  0.32085244  0.52389527    -0.45800
H2062       H  0.39038464  0.41511171  0.49825673     0.07900
C2063       C  0.42912860  0.38575911  0.62935393    -0.05900
Cl2064     Cl  0.37251809  0.37549540  0.57517183    -0.48900
C2065       C  0.37152352  0.30203961  0.62378653     0.43600
H2066       H  0.35048324  0.45786663  0.58196902     0.07900
N2067       N  0.44340220  0.36379970  0.60060176    -0.45600
C2068       C  0.48635461  0.69462055  0.64429400     0.43500
N2069       N  0.47832617  0.65932965  0.63640455     0.02400
C2070       C  0.38078937  0.61972781  0.58082149    -0.05500
H2071       H  0.36340032  0.67895207  0.65222760     0.07900
C2072       C  0.41061212  0.61052868  0.70578051    -0.05800
Co2073     Co  0.43616286  0.65592434  0.60745367     0.74200
N2074       N  0.39398524  0.66358825  0.63646157    -0.25000
Co2075     Co  0.39247529  0.62602348  0.63635709     0.74100
C2076       C  0.39077465  0.62422073  0.71160313     0.43600
N2077       N  0.46260335  0.61039946  0.68179345     0.02000
N2078       N  0.39462286  0.62372379  0.67413038     0.02100
N2079       N  0.41016175  0.64087639  0.56653457    -0.45900
H2080       H  0.45479972  0.70790199  0.62382916     0.07900
N2081       N  0.41156879  0.67350048  0.62567382     0.02400
N2082       N  0.39291184  0.58858971  0.63573336     0.02100
C2083       C  0.38605085  0.55183987  0.63328519     0.43700
N2084       N  0.47853889  0.62171283  0.67008783    -0.24500
C2085       C  0.46387609  0.63666759  0.56568386    -0.05400
N2086       N  0.49348025  0.67250000  0.64731258    -0.45600
N2087       N  0.37810778  0.57324575  0.62668757    -0.45800
C2088       C  0.48355234  0.62108056  0.56284475     0.43500
N2089       N  0.41054559  0.64014588  0.58930330     0.02400
N2090       N  0.47610361  0.58759835  0.63269599    -0.24500
N2091       N  0.46194949  0.67151126  0.62624223    -0.25000
N2092       N  0.46002407  0.57629678  0.64423882     0.02000
H2093       H  0.50341547  0.57643606  0.60978114     0.07900
H2094       H  0.41771540  0.54238141  0.65481533     0.07900
N2095       N  0.39357512  0.62805432  0.59878303    -0.25000
N2096       N  0.41182527  0.61126966  0.68286649    -0.24700
N2097       N  0.47666123  0.62538383  0.59896828     0.02400
C2098       C  0.39119425  0.70311416  0.63561449     0.43800
C2099       C  0.49338176  0.63131991  0.68487950    -0.05900
N2100       N  0.40975275  0.57790670  0.64702849    -0.24700
H2101       H  0.42217063  0.60098773  0.71706723     0.07900
N2102       N  0.41041448  0.69624370  0.62475976    -0.45900
H2103       H  0.50843263  0.64140162  0.68020983     0.07900
C2104       C  0.47834703  0.54982165  0.62591169     0.43600
C2105       C  0.46549541  0.69397662  0.63021245    -0.05400
Co2106     Co  0.47804123  0.62344879  0.63451771     0.73800
N2107       N  0.46586281  0.61141236  0.70451749    -0.45600
C2108       C  0.39219388  0.62849286  0.55918882     0.43900
N2109       N  0.49076164  0.61503085  0.58423506    -0.45600
Co2110     Co  0.43602250  0.59382937  0.66418361     0.73900
C2111       C  0.40671745  0.55515074  0.64654337    -0.05900
C2112       C  0.37985926  0.68118044  0.64355771    -0.05500
N2113       N  0.46078405  0.63802589  0.58862388    -0.25000
N2114       N  0.38121209  0.63207021  0.69122759    -0.45800
H2115       H  0.36559894  0.60895380  0.58261217     0.07900
C2116       C  0.48871347  0.57230910  0.62062849    -0.05900
Cl2117     Cl  0.43546252  0.62484686  0.63568609    -0.48900
C2118       C  0.48473422  0.62480202  0.70762128     0.43600
H2119       H  0.45354876  0.64546867  0.55282829     0.07900
N2120       N  0.46095525  0.55364156  0.64099640    -0.45600
C2121       C  0.70253130  0.40340428  0.63354187     0.43500
N2122       N  0.66470395  0.40365038  0.63252429     0.02400
C2123       C  0.60266136  0.48964794  0.57626867    -0.05500
H2124       H  0.65453394  0.51912820  0.64666989     0.07900
C2125       C  0.60696707  0.47281049  0.69938058    -0.05800
Co2126     Co  0.65067804  0.44302629  0.60188596     0.74200
N2127       N  0.64923319  0.48705970  0.62848318    -0.25000
Co2128     Co  0.61389655  0.48148519  0.62843962     0.74100
C2129       C  0.61728155  0.49585366  0.69873375     0.43600
N2130       N  0.61345589  0.41633419  0.68053289     0.02000
N2131       N  0.61374890  0.48351194  0.66408425     0.02100
N2132       N  0.62758178  0.46425525  0.55995057    -0.45900
H2133       H  0.70444379  0.43551527  0.61027581     0.07900
N2134       N  0.66339826  0.47214921  0.61865887     0.02400
N2135       N  0.57876160  0.47490914  0.62886490     0.02100
C2136       C  0.54206875  0.47750781  0.62379938     0.43700
N2137       N  0.62673875  0.40024987  0.67097701    -0.24500
C2138       C  0.63976198  0.41021405  0.56283099    -0.05400
N2139       N  0.68300058  0.39159226  0.64041060    -0.45600
N2140       N  0.56263954  0.48679402  0.61779362    -0.45800
C2141       C  0.62889606  0.38808299  0.55944472     0.43500
N2142       N  0.62864121  0.46357592  0.58277598     0.02400
N2143       N  0.58970258  0.39328946  0.63485624    -0.24500
N2144       N  0.67173117  0.42198097  0.62072260    -0.25000
N2145       N  0.57804528  0.40902191  0.64675922     0.02000
H2146       H  0.57698333  0.36299759  0.61633831     0.07900
H2147       H  0.53521138  0.44758685  0.64949036     0.07900
N2148       N  0.61444557  0.47833475  0.59276109    -0.25000
N2149       N  0.60561045  0.46662214  0.67704815    -0.24700
N2150       N  0.62821147  0.39656422  0.59611791     0.02400
C2151       C  0.68571240  0.49822789  0.63267777     0.43800
C2152       C  0.63714223  0.38866471  0.68869013    -0.05900
N2153       N  0.57015173  0.45851018  0.64216885    -0.24700
H2154       H  0.60061786  0.46281270  0.71391056     0.07900
N2155       N  0.68536295  0.47826606  0.62054488    -0.45900
H2156       H  0.64905871  0.37429721  0.68673146     0.07900
C2157       C  0.55048624  0.38654507  0.63591932     0.43600
C2158       C  0.69466202  0.42313859  0.62035915    -0.05400
Co2159     Co  0.62737848  0.39715631  0.63363083     0.73800
N2160       N  0.61402121  0.41650095  0.70337048    -0.45600
C2161       C  0.61133660  0.48007743  0.55444218     0.43900
N2162       N  0.62159645  0.38051193  0.58078652    -0.45600
Co2163     Co  0.59183500  0.43749211  0.66186258     0.73900
C2164       C  0.54700094  0.45885103  0.64029105    -0.05900
C2165       C  0.66164750  0.50426503  0.63776698    -0.05500
N2166       N  0.63832114  0.41416838  0.58551192    -0.25000
N2167       N  0.62086614  0.50132926  0.67632786    -0.45800
H2168       H  0.59037048  0.50351278  0.57923206     0.07900
C2169       C  0.57340139  0.37814509  0.62678426    -0.05900
Cl2170     Cl  0.62099459  0.43958690  0.63147094    -0.48900
C2171       C  0.62859887  0.39981631  0.71033962     0.43600
H2172       H  0.64729570  0.42177534  0.55012295     0.07900
N2173       N  0.55560413  0.40558150  0.64778245    -0.45600
C2174       C  0.29509375  0.52832568  0.38064451     0.43500
N2175       N  0.33165181  0.53209289  0.38465197     0.02400
C2176       C  0.38785806  0.62316412  0.43748453    -0.05500
H2177       H  0.32706359  0.64188200  0.36113961     0.07900
C2178       C  0.38956224  0.59363674  0.31284298    -0.05800
Co2179     Co  0.34369504  0.57242533  0.41396732     0.74200
N2180       N  0.34025816  0.61438409  0.38347929    -0.25000
Co2181     Co  0.37789298  0.61176225  0.38251954     0.74100
C2182       C  0.38029913  0.61617091  0.30762517     0.43600
N2183       N  0.37991081  0.54213481  0.33696885     0.02000
N2184       N  0.37857342  0.61026405  0.34488070     0.02100
N2185       N  0.36482391  0.59604856  0.45324956    -0.45900
H2186       H  0.28764749  0.56018206  0.40341566     0.07900
N2187       N  0.32889490  0.59948242  0.39673229     0.02400
N2188       N  0.41512163  0.60601619  0.38141596     0.02100
C2189       C  0.45283073  0.60682604  0.38147839     0.43700
N2190       N  0.36671827  0.52735395  0.34818970    -0.24500
C2191       C  0.36137398  0.54069673  0.45418745    -0.05400
N2192       N  0.31573057  0.51886714  0.37505326    -0.45600
N2193       N  0.43328815  0.61859010  0.38845678    -0.45800
C2194       C  0.37336514  0.51838688  0.45532521     0.43500
N2195       N  0.36448038  0.59521185  0.43053053     0.02400
N2196       N  0.40243372  0.52272032  0.38369657    -0.24500
N2197       N  0.32273837  0.54942604  0.39645550    -0.25000
N2198       N  0.41558599  0.53747914  0.37241912     0.02000
H2199       H  0.40981973  0.49216507  0.40385434     0.07900
H2200       H  0.45484347  0.57403044  0.35934803     0.07900
N2201       N  0.37759748  0.61087241  0.42016743    -0.25000
N2202       N  0.38791216  0.59153487  0.33566921    -0.24700
N2203       N  0.36769204  0.52738231  0.41978169     0.02400
C2204       C  0.30108799  0.61993085  0.38288953     0.43800
C2205       C  0.35552844  0.51431221  0.33266846    -0.05900
N2206       N  0.42224904  0.58737602  0.37027222    -0.24700
H2207       H  0.39717508  0.58089390  0.30142199     0.07900
N2208       N  0.30629222  0.60234705  0.39694797    -0.45900
H2209       H  0.34412640  0.50000749  0.33666496     0.07900
C2210       C  0.43947893  0.51350239  0.38754071     0.43600
C2211       C  0.29964482  0.54846526  0.39507437    -0.05400
Co2212     Co  0.36698210  0.52677680  0.38402316     0.73800
N2213       N  0.37875263  0.53990257  0.31430410    -0.45600
C2214       C  0.37895813  0.61303970  0.45966545     0.43900
N2215       N  0.37644237  0.51114969  0.43335444    -0.45600
Co2216     Co  0.40143563  0.56456034  0.35382786     0.73900
C2217       C  0.44511867  0.58666972  0.36914042    -0.05900
C2218       C  0.32376753  0.62801480  0.37334181    -0.05500
N2219       N  0.35887884  0.54487044  0.43142074    -0.25000
N2220       N  0.37340124  0.62578985  0.32830266    -0.45800
H2221       H  0.39963080  0.63751433  0.43496980     0.07900
C2222       C  0.41592103  0.50677760  0.39382904    -0.05900
Cl2223     Cl  0.37251116  0.56909947  0.38356345    -0.48900
C2224       C  0.36354792  0.52289449  0.31016421     0.43600
H2225       H  0.35549874  0.55181707  0.46800654     0.07900
N2226       N  0.43783035  0.53246063  0.37399026    -0.45600
C2227       C  0.54757012  0.11836630  0.98953098     0.43500
N2228       N  0.58331544  0.12592266  0.98396657     0.02400
C2229       C  0.63111868  0.18289646  0.89032865    -0.05500
H2230       H  0.57183661  0.10998334  0.87015227     0.07900
C2231       C  0.63785886  0.05747236  0.91829426    -0.05800
Co2232     Co  0.59068907  0.15614565  0.94320242     0.74200
N2233       N  0.58579374  0.12756697  0.90036633    -0.25000
Co2234     Co  0.62349310  0.12737117  0.90136950     0.74100
C2235       C  0.62543192  0.05255427  0.89738294     0.43600
N2236       N  0.63254662  0.08041124  0.97121134     0.02000
N2237       N  0.62512302  0.08972188  0.90311255     0.02100
N2238       N  0.60899479  0.19733013  0.91900990    -0.45900
H2239       H  0.53658946  0.14052701  0.95814362     0.07900
N2240       N  0.57494136  0.13887033  0.91705222     0.02400
N2241       N  0.66104137  0.12739379  0.90482375     0.02100
C2242       C  0.69846384  0.13035865  0.90206838     0.43700
N2243       N  0.62000651  0.09151177  0.98664840    -0.24500
C2244       C  0.60743438  0.19664030  0.97342994    -0.05400
N2245       N  0.56906315  0.11471119  0.99784254    -0.45600
N2246       N  0.67794956  0.13623235  0.89151846    -0.45800
C2247       C  0.62100894  0.19881275  0.99454236     0.43500
N2248       N  0.60912850  0.17452469  0.91920838     0.02400
N2249       N  0.65424422  0.12848202  0.98847089    -0.24500
N2250       N  0.57252619  0.13699581  0.96722601    -0.25000
N2251       N  0.66701377  0.11729864  0.97327002     0.02000
H2252       H  0.66245274  0.14912382  0.01840421     0.07900
H2253       H  0.70419468  0.10814683  0.93432421     0.07900
N2254       N  0.62189469  0.16498835  0.90271176    -0.25000
N2255       N  0.63662101  0.08034080  0.92063617    -0.24700
N2256       N  0.61743823  0.16293552  0.98633536     0.02400
C2257       C  0.54632111  0.12787565  0.89600445     0.43800
C2258       C  0.60957436  0.07605137  0.00040973    -0.05900
N2259       N  0.66994331  0.11618268  0.92274404    -0.24700
H2260       H  0.64653110  0.04564792  0.93002181     0.07900
N2261       N  0.55230387  0.13945895  0.91499047    -0.45900
H2262       H  0.59860655  0.08013457  0.01504093     0.07900
C2263       C  0.69135918  0.13326023  0.99594189     0.43600
C2264       C  0.54978122  0.13337298  0.96930695    -0.05400
Co2265     Co  0.61873086  0.12724025  0.98688999     0.73800
N2266       N  0.63159622  0.05766320  0.97366345    -0.45600
C2267       C  0.62248109  0.20454013  0.90164427     0.43900
N2268       N  0.62639645  0.17720096  0.00174104    -0.45600
Co2269     Co  0.65167921  0.09841199  0.94696625     0.73900
C2270       C  0.69283810  0.11687609  0.92221573    -0.05900
C2271       C  0.56885302  0.11965057  0.88592297    -0.05500
N2272       N  0.60648578  0.17385837  0.96962167    -0.25000
N2273       N  0.61746744  0.07324985  0.88871372    -0.45800
H2274       H  0.64256413  0.18112663  0.87556488     0.07900
C2275       C  0.66806580  0.13918525  0.00354835    -0.05900
Cl2276     Cl  0.62120038  0.12725881  0.94418206    -0.48900
C2277       C  0.61707189  0.05361223  0.99149130     0.43600
H2278       H  0.59938724  0.20967111  0.96275538     0.07900
N2279       N  0.68943471  0.11927668  0.97737354    -0.45600
C2280       C  0.20140180  0.89093651  0.63405396     0.43500
N2281       N  0.16430584  0.89703387  0.63205635     0.02400
C2282       C  0.11897421  0.99853331  0.58602351    -0.05500
H2283       H  0.17158685  0.00774453  0.66085793     0.07900
C2284       C  0.11367922  0.96573707  0.70507544    -0.05800
Co2285     Co  0.15744031  0.94099180  0.60507931     0.74200
N2286       N  0.16195549  0.98034284  0.63764748    -0.25000
Co2287     Co  0.12624939  0.98103397  0.63612125     0.74100
C2288       C  0.12728829  0.98687981  0.70779604     0.43600
N2289       N  0.11286982  0.91117387  0.67957698     0.02000
N2290       N  0.12486517  0.97866985  0.67174903     0.02100
N2291       N  0.14008184  0.97228973  0.56584665    -0.45900
H2292       H  0.20964242  0.92367581  0.61353783     0.07900
N2293       N  0.17394140  0.96496105  0.62585988     0.02400
N2294       N  0.09039145  0.98043873  0.63489810     0.02100
C2295       C  0.05469669  0.98942772  0.63046290     0.43700
N2296       N  0.12477797  0.89475173  0.66890642    -0.24500
C2297       C  0.14265739  0.91485760  0.56259051    -0.05400
N2298       N  0.18022582  0.88234976  0.64057911    -0.45600
N2299       N  0.07654694  0.99635526  0.62587565    -0.45800
C2300       C  0.12977039  0.89439319  0.55693185     0.43500
N2301       N  0.13993352  0.96760226  0.58835070     0.02400
N2302       N  0.08878325  0.89699314  0.63139071    -0.24500
N2303       N  0.17443071  0.91455529  0.62128816    -0.25000
N2304       N  0.07866480  0.91341260  0.64376870     0.02000
H2305       H  0.07348988  0.86885638  0.61163781     0.07900
H2306       H  0.04265528  0.95749477  0.65113187     0.07900
N2307       N  0.12793156  0.98277077  0.60042958    -0.25000
N2308       N  0.11325636  0.96206335  0.68213957    -0.24700
N2309       N  0.12874679  0.89927827  0.59413904     0.02400
C2310       C  0.19949435  0.98412526  0.64452341     0.43800
C2311       C  0.13274965  0.88018132  0.68571251    -0.05900
N2312       N  0.07894907  0.96378296  0.64544778    -0.24700
H2313       H  0.10481360  0.95542695  0.71798025     0.07900
N2314       N  0.19649472  0.96679645  0.62919745    -0.45900
H2315       H  0.14295606  0.86471604  0.68273303     0.07900
C2316       C  0.04909654  0.89468465  0.63103268     0.43600
C2317       C  0.19730457  0.91201911  0.62147603    -0.05400
Co2318     Co  0.12660594  0.89578294  0.63151804     0.73800
N2319       N  0.11184707  0.90869015  0.70223337    -0.45600
C2320       C  0.12682217  0.99139099  0.56309703     0.43900
N2321       N  0.12109960  0.88551907  0.57718308    -0.45600
Co2322     Co  0.09594360  0.93749905  0.66282582     0.73900
C2323       C  0.05624566  0.96789291  0.64358137    -0.05900
C2324       C  0.17655717  0.99341117  0.64988330    -0.05500
N2325       N  0.14103302  0.91662477  0.58551619    -0.25000
N2326       N  0.13337563  0.99393330  0.68637783    -0.45800
H2327       H  0.10904408  0.01357955  0.59119100     0.07900
C2328       C  0.07120821  0.88408951  0.62230789    -0.05900
Cl2329     Cl  0.12652175  0.93845723  0.63377985    -0.48900
C2330       C  0.12371635  0.88960958  0.70801365     0.43600
H2331       H  0.15216166  0.92642614  0.55130090     0.07900
N2332       N  0.05588509  0.91252637  0.64399307    -0.45600
C2333       C  0.11825548  0.70522846  0.89972521     0.43500
N2334       N  0.12044574  0.66767795  0.90383325     0.02400
C2335       C  0.07504959  0.61121342  0.99977515    -0.05500
H2336       H  0.14488710  0.67007568  0.01682892     0.07900
C2337       C  0.19465472  0.61826933  0.97184558    -0.05800
Co2338     Co  0.09353480  0.65567920  0.94664039     0.74200
N2339       N  0.12387914  0.66027463  0.98764732    -0.25000
Co2340     Co  0.12512416  0.62468930  0.98609561     0.74100
C2341       C  0.19627119  0.63183542  0.99292157     0.43600
N2342       N  0.17143346  0.61873257  0.91785568     0.02000
N2343       N  0.16065847  0.62604740  0.98499762     0.02100
N2344       N  0.05485039  0.63201662  0.97344963    -0.45900
H2345       H  0.09819932  0.70887023  0.93382139     0.07900
N2346       N  0.11176707  0.67221663  0.97247210     0.02400
N2347       N  0.12634044  0.58921343  0.98326181     0.02100
C2348       C  0.12070028  0.55301991  0.98881333     0.43700
N2349       N  0.16100233  0.63091584  0.90140202    -0.24500
C2350       C  0.05327259  0.63896557  0.91948606    -0.05400
N2351       N  0.12648455  0.68519894  0.88975633    -0.45600
N2352       N  0.11618379  0.57429355  0.99724628    -0.45800
C2353       C  0.04823586  0.62688178  0.89847034     0.43500
N2354       N  0.07739188  0.63494463  0.97095129     0.02400
N2355       N  0.12650552  0.59272253  0.89925248    -0.24500
N2356       N  0.10914189  0.67562937  0.92208020    -0.25000
N2357       N  0.13866891  0.58229730  0.91569369     0.02000
H2358       H  0.11086748  0.57860530  0.86812678     0.07900
H2359       H  0.14265094  0.54350038  0.95666506     0.07900
N2360       N  0.08952585  0.62317026  0.98620526    -0.25000
N2361       N  0.17203492  0.61582191  0.96816002    -0.24700
N2362       N  0.08559857  0.62927506  0.90253931     0.02400
C2363       C  0.12703368  0.69781164  0.99421406     0.43800
C2364       C  0.17826964  0.64045757  0.88837486    -0.05900
N2365       N  0.13756298  0.57914709  0.96621034    -0.24700
H2366       H  0.20844502  0.61083288  0.96092774     0.07900
N2367       N  0.11282067  0.69479633  0.97598423    -0.45900
H2368       H  0.17572540  0.65123488  0.87322234     0.07900
C2369       C  0.13087023  0.55393130  0.89316588     0.43600
C2370       C  0.10715408  0.69850876  0.92107908    -0.05400
Co2371     Co  0.12334161  0.63020669  0.90040998     0.73800
N2372       N  0.19414488  0.61920804  0.91697309    -0.45600
C2373       C  0.05202379  0.61685801  0.99102431     0.43900
N2374       N  0.06906131  0.62137954  0.88824020    -0.45600
Co2375     Co  0.15496305  0.59889428  0.94194462     0.73900
C2376       C  0.13518972  0.55614966  0.96823288    -0.05900
C2377       C  0.13417595  0.67492847  0.00222107    -0.05500
N2378       N  0.07613893  0.63943545  0.92077748    -0.25000
N2379       N  0.17446369  0.63574847  0.00034384    -0.45800
H2380       H  0.08005884  0.60041220  0.01429497     0.07900
C2381       C  0.12034373  0.57582562  0.88406675    -0.05900
Cl2382     Cl  0.12422847  0.62739078  0.94331430    -0.48900
C2383       C  0.20048363  0.63252527  0.89918985     0.43600
H2384       H  0.04147983  0.64685903  0.93172892     0.07900
N2385       N  0.14163561  0.55990648  0.91264378    -0.45600
C2386       C  0.98636345  0.55773512  0.12873475     0.43500
N2387       N  0.97873354  0.59330901  0.13498559     0.02400
C2388       C  0.88083063  0.63862890  0.18630961    -0.05500
H2389       H  0.86462498  0.57863792  0.11457356     0.07900
C2390       C  0.91389730  0.64264371  0.06156381    -0.05800
Co2391     Co  0.93600518  0.59983404  0.16224030     0.74200
N2392       N  0.89436183  0.59322757  0.13228012    -0.25000
Co2393     Co  0.89416299  0.63091839  0.13104764     0.74100
C2394       C  0.89238121  0.63154709  0.05598483     0.43600
N2395       N  0.96551670  0.63949542  0.08685247     0.02000
N2396       N  0.89690682  0.63155240  0.09343360     0.02100
N2397       N  0.90961521  0.61738534  0.20178229    -0.45900
H2398       H  0.95416182  0.54572629  0.14907852     0.07900
N2399       N  0.91109757  0.58284650  0.14403620     0.02400
N2400       N  0.89636133  0.66864740  0.12954917     0.02100
C2401       C  0.89161599  0.70609979  0.12900166     0.43700
N2402       N  0.98103708  0.62821754  0.09915998    -0.24500
C2403       C  0.96321358  0.61919800  0.20368420    -0.05400
N2404       N  0.99393582  0.57945395  0.12511465    -0.45600
N2405       N  0.88191383  0.68561365  0.13632797    -0.45800
C2406       C  0.98308014  0.63430727  0.20677185     0.43500
N2407       N  0.91075053  0.61777201  0.17902711     0.02400
N2408       N  0.97971520  0.66440964  0.13460595    -0.24500
N2409       N  0.96174064  0.58204514  0.14509452    -0.25000
N2410       N  0.96434158  0.67579976  0.12224060     0.02000
H2411       H  0.00703784  0.67525574  0.15748988     0.07900
H2412       H  0.92463110  0.71168579  0.10816535     0.07900
N2413       N  0.89426335  0.63004971  0.16881446    -0.25000
N2414       N  0.91513161  0.64208768  0.08447095    -0.24700
N2415       N  0.97743181  0.62904250  0.17054208     0.02400
C2416       C  0.89058616  0.55376538  0.13317660     0.43800
C2417       C  0.99503471  0.61658286  0.08479108    -0.05900
N2418       N  0.91432954  0.67745930  0.11841233    -0.24700
H2419       H  0.92647491  0.65082392  0.05037972     0.07900
N2420       N  0.90936956  0.56013447  0.14498108    -0.45900
H2421       H  0.00953565  0.60584630  0.08987054     0.07900
C2422       C  0.98333042  0.70212901  0.13960191     0.43600
C2423       C  0.96512730  0.55928303  0.14231845    -0.05400
Co2424     Co  0.97991053  0.62883244  0.13488398     0.73800
N2425       N  0.96815357  0.63646748  0.06429871    -0.45600
C2426       C  0.89156272  0.63013968  0.20839183     0.43900
N2427       N  0.99131820  0.63940411  0.18544189    -0.45600
Co2428     Co  0.93990273  0.65876546  0.10285287     0.73900
C2429       C  0.91268087  0.70037043  0.11713311    -0.05900
C2430       C  0.88028825  0.57599460  0.12448438    -0.05500
N2431       N  0.96083351  0.61735150  0.18078664    -0.25000
N2432       N  0.88252744  0.62468190  0.07658045    -0.45800
H2433       H  0.86556863  0.64929910  0.18402509     0.07900
C2434       C  0.99276567  0.67957983  0.14612426    -0.05900
Cl2435     Cl  0.93725666  0.62960334  0.13274856    -0.48900
C2436       C  0.98612190  0.62177834  0.06173671     0.43600
H2437       H  0.95242807  0.61066923  0.21621239     0.07900
N2438       N  0.96606603  0.69845483  0.12447373    -0.45600
C2439       C  0.97802545  0.20726807  0.64440232     0.43500
N2440       N  0.97329705  0.17092078  0.63846855     0.02400
C2441       C  0.88295076  0.11939449  0.57933443    -0.05500
H2442       H  0.86045384  0.17865058  0.65309476     0.07900
C2443       C  0.90564598  0.11428077  0.70556762    -0.05800
Co2444     Co  0.93399090  0.16112005  0.60690780     0.74200
N2445       N  0.89034573  0.16502300  0.63447298    -0.25000
Co2446     Co  0.89208339  0.12745006  0.63486089     0.74100
C2447       C  0.88426423  0.12640196  0.70942948     0.43600
N2448       N  0.95915575  0.12180447  0.68474768     0.02000
N2449       N  0.89176632  0.12618383  0.67250016     0.02100
N2450       N  0.91152668  0.14173856  0.56515908    -0.45900
H2451       H  0.94717370  0.21657629  0.62076218     0.07900
N2452       N  0.90674221  0.17611782  0.62296938     0.02400
N2453       N  0.89650111  0.08994333  0.63519579     0.02100
C2454       C  0.89477046  0.05238203  0.63199316     0.43700
N2455       N  0.97441506  0.13486297  0.67395354    -0.24500
C2456       C  0.96611685  0.14463942  0.56793157    -0.05400
N2457       N  0.98656688  0.18602358  0.64931575    -0.45600
N2458       N  0.88401183  0.07275572  0.62586746    -0.45800
C2459       C  0.98802293  0.13224853  0.56645521     0.43500
N2460       N  0.91140287  0.14159689  0.58800974     0.02400
N2461       N  0.97996777  0.09963185  0.63788650    -0.24500
N2462       N  0.95671301  0.18086964  0.62641172    -0.25000
N2463       N  0.96465783  0.08653741  0.64856259     0.02000
H2464       H  0.01091675  0.09193997  0.61840735     0.07900
H2465       H  0.92631713  0.04732887  0.65532831     0.07900
N2466       N  0.89487959  0.12876089  0.59734011    -0.25000
N2467       N  0.90904179  0.11518022  0.68277981    -0.24700
N2468       N  0.97847634  0.13586431  0.60218486     0.02400
C2469       C  0.88543593  0.20426433  0.63433377     0.43800
C2470       C  0.98587796  0.14731846  0.68962431    -0.05900
N2471       N  0.91416906  0.08147354  0.64709730    -0.24700
H2472       H  0.91710291  0.10624535  0.71805825     0.07900
N2473       N  0.90436451  0.19871172  0.62245539    -0.45900
H2474       H  0.99972214  0.15930976  0.68580805     0.07900
C2475       C  0.98869795  0.06257429  0.63377962     0.43600
C2476       C  0.95829558  0.20388570  0.62896723    -0.05400
Co2477     Co  0.97717795  0.13526685  0.63818843     0.73800
N2478       N  0.95971121  0.12439141  0.70755665    -0.45600
C2479       C  0.89438152  0.12813317  0.55777246     0.43900
N2480       N  0.99481687  0.12748496  0.58841654    -0.45600
Co2481     Co  0.93679361  0.10102464  0.66596410     0.73900
C2482       C  0.91430740  0.05847763  0.64619898    -0.05900
C2483       C  0.87588191  0.18174122  0.64289572    -0.05500
N2484       N  0.96163412  0.14586066  0.59055878    -0.25000
N2485       N  0.87650060  0.13393223  0.68822634    -0.45800
H2486       H  0.86818403  0.10803073  0.58104894     0.07900
C2487       C  0.99592389  0.08604411  0.62797031    -0.05900
Cl2488     Cl  0.93481799  0.13116117  0.63645954    -0.48900
C2489       C  0.97583483  0.14069713  0.71188766     0.43600
H2490       H  0.95524236  0.15178763  0.55453584     0.07900
N2491       N  0.96943236  0.06418879  0.64687392    -0.45600
C2492       C  0.54408642  0.89306149  0.13883205     0.43500
N2493       N  0.58136075  0.89820591  0.13713976     0.02400
C2494       C  0.63292051  0.00004534  0.17402391    -0.05500
H2495       H  0.57670458  0.00811135  0.10154124     0.07900
C2496       C  0.63102995  0.95870320  0.05746857    -0.05800
Co2497     Co  0.59118783  0.94371531  0.16001004     0.74200
N2498       N  0.58642261  0.98095503  0.12506780    -0.25000
Co2499     Co  0.62216767  0.98028596  0.12520274     0.74100
C2500       C  0.61626086  0.97897981  0.05363939     0.43600
N2501       N  0.63341685  0.90724983  0.08737345     0.02000
N2502       N  0.62208377  0.97486493  0.08998316     0.02100
N2503       N  0.61216046  0.97524047  0.19615744    -0.45900
H2504       H  0.53831008  0.92813420  0.15612115     0.07900
N2505       N  0.57453048  0.96679056  0.13832156     0.02400
N2506       N  0.65787008  0.97880186  0.12546421     0.02100
C2507       C  0.69360354  0.98663372  0.13059047     0.43700
N2508       N  0.62016537  0.89256682  0.09901401    -0.24500
C2509       C  0.60668077  0.92095245  0.20391249    -0.05400
N2510       N  0.56456590  0.88315120  0.13176994    -0.45600
N2511       N  0.67191769  0.99446714  0.13425526    -0.45800
C2512       C  0.61724022  0.89955771  0.21149720     0.43500
N2513       N  0.61039083  0.97028755  0.17391978     0.02400
N2514       N  0.65654169  0.89577112  0.13618563    -0.24500
N2515       N  0.57246785  0.91703706  0.14666525    -0.25000
N2516       N  0.66729417  0.91106743  0.12283554     0.02000
H2517       H  0.67063660  0.86965075  0.15957537     0.07900
H2518       H  0.70531715  0.95340727  0.11187766     0.07900
N2519       N  0.62220840  0.98451516  0.16063854    -0.25000
N2520       N  0.63341006  0.95746343  0.08058577    -0.24700
N2521       N  0.61773012  0.90124113  0.17371688     0.02400
C2522       C  0.54863854  0.98670817  0.12059558     0.43800
C2523       C  0.61072303  0.87821691  0.08290006    -0.05900
N2524       N  0.66899283  0.96121947  0.11619835    -0.24700
H2525       H  0.63868723  0.94698460  0.04501898     0.07900
N2526       N  0.55192601  0.96983603  0.13648002    -0.45900
H2527       H  0.59895311  0.86411120  0.08650722     0.07900
C2528       C  0.69576049  0.89360064  0.13905202     0.43600
C2529       C  0.54961541  0.91532315  0.14840088    -0.05400
Co2530     Co  0.61890596  0.89557825  0.13651609     0.73800
N2531       N  0.63431595  0.90356792  0.06491505    -0.45600
C2532       C  0.62637548  0.99359031  0.19762933     0.43900
N2533       N  0.62401287  0.88800454  0.19179481    -0.45600
Co2534     Co  0.65096574  0.93412024  0.10160531     0.73900
C2535       C  0.69183762  0.96475765  0.11818503    -0.05900
C2536       C  0.57166829  0.99434398  0.11320962    -0.05500
N2537       N  0.60744499  0.92035537  0.18094856    -0.25000
N2538       N  0.61174243  0.98817406  0.07456243    -0.45800
H2539       H  0.64353581  0.01421173  0.16787319     0.07900
C2540       C  0.67345925  0.88348194  0.14719153    -0.05900
Cl2541     Cl  0.62078591  0.93798044  0.13083402    -0.48900
C2542       C  0.62080582  0.88555888  0.06023034     0.43600
H2543       H  0.59860325  0.93464300  0.21372443     0.07900
N2544       N  0.69001175  0.91023076  0.12403383    -0.45600
C2545       C  0.02791441  0.59566550  0.01969570     0.24600
C2546       C  0.03044112  0.61423141  0.00413105    -0.23500
C2547       C  0.01409425  0.63233595  0.00424304     0.19500
C2548       C  0.99794526  0.63379072  0.02211812     0.24600
C2549       C  0.99779734  0.61694889  0.03971847    -0.23400
C2550       C  0.01151037  0.59698114  0.03735839     0.19500
F2551       F  0.00977422  0.57928023  0.05274401    -0.13400
F2552       F  0.04216612  0.57693579  0.01864012    -0.15700
F2553       F  0.98426175  0.65291177  0.02347511    -0.15700
F2554       F  0.01527889  0.64997040  0.98865813    -0.13400
C2555       C  0.01906625  0.00667638  0.64781566     0.24600
C2556       C  0.03474565  0.00513104  0.62919051    -0.23500
C2557       C  0.03294227  0.02075909  0.61060077     0.19500
C2558       C  0.01682400  0.03877582  0.61139275     0.24600
C2559       C  0.00245352  0.04140667  0.63086861    -0.23400
C2560       C  0.00301796  0.02472084  0.64863192     0.19500
F2561       F  0.98944205  0.02692395  0.66775191    -0.13400
F2562       F  0.02050907  0.99207597  0.66625558    -0.15700
F2563       F  0.01563730  0.05394651  0.59339591    -0.15700
F2564       F  0.04730996  0.01898623  0.59202678    -0.13400
C2565       C  0.63166007  0.01420075  0.00161755     0.24600
C2566       C  0.61399231  0.03101062  0.00275258    -0.23500
C2567       C  0.59456653  0.02703174  0.01683753     0.19500
C2568       C  0.59406460  0.00790322  0.03153950     0.24600
C2569       C  0.61308205  0.99272624  0.03254429    -0.23400
C2570       C  0.63122939  0.99511527  0.01651147     0.19500
F2571       F  0.64982673  0.98069051  0.01704587    -0.13400
F2572       F  0.65053715  0.01741106  0.98793376    -0.15700
F2573       F  0.57589148  0.00530683  0.04630027    -0.15700
F2574       F  0.57663819  0.04227897  0.01737219    -0.13400
C2575       C  0.37018271  0.61117977  0.52544269     0.24600
C2576       C  0.38816821  0.62505419  0.53368578    -0.23500
C2577       C  0.40305371  0.63568552  0.51704216     0.19500
C2578       C  0.40008706  0.63224111  0.49309242     0.24600
C2579       C  0.38213097  0.61825850  0.48492736    -0.23400
C2580       C  0.36715222  0.60784113  0.50155382     0.19500
F2581       F  0.34928604  0.59417476  0.49486433    -0.13400
F2582       F  0.35546913  0.60060816  0.54043275    -0.15700
F2583       F  0.41520161  0.64215673  0.47802148    -0.15700
F2584       F  0.42081239  0.64945481  0.52374089    -0.13400
C2585       C  0.50314626  0.52402361  0.60196342     0.24600
C2586       C  0.48872176  0.52700633  0.62130880    -0.23500
C2587       C  0.48723921  0.50920657  0.63795942     0.19500
C2588       C  0.50303333  0.49083769  0.63745056     0.24600
C2589       C  0.52021694  0.49015470  0.62014106    -0.23400
C2590       C  0.51876939  0.50561999  0.60133711     0.19500
F2591       F  0.53389501  0.50411304  0.58334302    -0.13400
F2592       F  0.50320361  0.53972088  0.58440468    -0.15700
F2593       F  0.50297767  0.47541862  0.65525013    -0.15700
F2594       F  0.47230806  0.51079781  0.65609852    -0.13400
C2595       C  0.48474138  0.38744019  0.64460116     0.24600
C2596       C  0.47641177  0.37741698  0.62415039    -0.23500
C2597       C  0.49308705  0.36769892  0.60865400     0.19500
C2598       C  0.51710560  0.36917709  0.61290486     0.24600
C2599       C  0.52537014  0.38023175  0.63279151    -0.23400
C2600       C  0.50872116  0.38866893  0.64893948     0.19500
F2601       F  0.51565654  0.39857828  0.66908873    -0.13400
F2602       F  0.46976722  0.39619966  0.66048513    -0.15700
F2603       F  0.53220904  0.36071766  0.59696818    -0.15700
F2604       F  0.48634394  0.35710119  0.58882646    -0.13400
C2605       C  0.39448347  0.46738848  0.48948162     0.24600
C2606       C  0.37773965  0.46614386  0.50712694    -0.23500
C2607       C  0.36262596  0.48506331  0.51047707     0.19500
C2608       C  0.36236090  0.50344653  0.49464383     0.24600
C2609       C  0.37728057  0.50312544  0.47538769    -0.23400
C2610       C  0.39420333  0.48569802  0.47373124     0.19500
F2611       F  0.40986412  0.48582360  0.45615542    -0.13400
F2612       F  0.41074434  0.45059406  0.48692882    -0.15700
F2613       F  0.34619278  0.52036660  0.49715620    -0.15700
F2614       F  0.34691882  0.48505782  0.52801338    -0.13400
C2615       C  0.37860279  0.51988809  0.60509180     0.24600
C2616       C  0.37757219  0.52821672  0.62783278    -0.23500
C2617       C  0.37564308  0.51200894  0.64616996     0.19500
C2618       C  0.37529133  0.48800273  0.64195292     0.24600
C2619       C  0.37696160  0.47957438  0.61926234    -0.23400
C2620       C  0.37838081  0.49593059  0.60082986     0.19500
F2621       F  0.38040957  0.48875041  0.57850575    -0.13400
F2622       F  0.38153579  0.53483070  0.58708961    -0.15700
F2623       F  0.37297346  0.47307944  0.66001876    -0.15700
F2624       F  0.37495509  0.51955335  0.66843271    -0.13400
C2625       C  0.62451303  0.55226345  0.72979907     0.24600
C2626       C  0.62622191  0.54512318  0.75307507    -0.23500
C2627       C  0.62533962  0.52140750  0.75853060     0.19500
C2628       C  0.62253702  0.50508106  0.74090635     0.24600
C2629       C  0.62046005  0.51238945  0.71770689    -0.23400
C2630       C  0.62149524  0.53612424  0.71239827     0.19500
F2631       F  0.61877894  0.54401692  0.69035119    -0.13400
F2632       F  0.62476773  0.57501883  0.72369275    -0.15700
F2633       F  0.62226511  0.48225658  0.74655284    -0.15700
F2634       F  0.62748521  0.51401680  0.78079387    -0.13400
C2635       C  0.50945728  0.64948799  0.73238606     0.24600
C2636       C  0.49664866  0.62903469  0.72963610    -0.23500
C2637       C  0.49816459  0.61153850  0.74648342     0.19500
C2638       C  0.51432842  0.61333606  0.76436354     0.24600
C2639       C  0.52903479  0.63276529  0.76555831    -0.23400
C2640       C  0.52562648  0.65131308  0.75016359     0.19500
F2641       F  0.53876078  0.67074582  0.75164012    -0.13400
F2642       F  0.50697995  0.66736189  0.71726525    -0.15700
F2643       F  0.51696795  0.59505207  0.77896830    -0.15700
F2644       F  0.48567650  0.59175106  0.74442958    -0.13400
C2645       C  0.25272938  0.48473748  0.35905094     0.24600
C2646       C  0.23808899  0.48263933  0.37836904    -0.23500
C2647       C  0.23943160  0.49888522  0.39639405     0.19500
C2648       C  0.25702701  0.51535762  0.39632847     0.24600
C2649       C  0.27325463  0.51579097  0.37812334    -0.23400
C2650       C  0.27028180  0.50119430  0.35895403     0.19500
F2651       F  0.28537071  0.50178798  0.34087310    -0.13400
F2652       F  0.25109433  0.46970134  0.34105164    -0.15700
F2653       F  0.25965297  0.52890474  0.41533483    -0.15700
F2654       F  0.22559081  0.49719742  0.41536199    -0.13400
C2655       C  0.24482672  0.39190374  0.49845598     0.24600
C2656       C  0.24402187  0.37666469  0.47956082    -0.23500
C2657       C  0.25746586  0.35643246  0.47977403     0.19500
C2658       C  0.27339278  0.35262550  0.49742198     0.24600
C2659       C  0.27646285  0.36937260  0.51475578    -0.23400
C2660       C  0.26099048  0.38826315  0.51605839     0.19500
F2661       F  0.26278080  0.40433037  0.53311544    -0.13400
F2662       F  0.23169027  0.41145528  0.49880580    -0.15700
F2663       F  0.28662465  0.33315476  0.49682335    -0.15700
F2664       F  0.25587763  0.34084147  0.46228857    -0.13400
C2665       C  0.53519588  0.73014884  0.66777990     0.24600
C2666       C  0.53560983  0.74860123  0.65180746    -0.23500
C2667       C  0.51683803  0.75160010  0.63656215     0.19500
C2668       C  0.49970875  0.73477721  0.63512911     0.24600
C2669       C  0.50090773  0.71483938  0.64917878    -0.23400
C2670       C  0.51803635  0.71331091  0.66634382     0.19500
F2671       F  0.51885731  0.69490984  0.68101230    -0.13400
F2672       F  0.55182053  0.72777899  0.68420664    -0.15700
F2673       F  0.48333170  0.73722686  0.61846392    -0.15700
F2674       F  0.51588912  0.76980506  0.62161493    -0.13400
C2675       C  0.63495768  0.75974668  0.75316242     0.24600
C2676       C  0.61959412  0.75966220  0.73433316    -0.23500
C2677       C  0.59941305  0.74623481  0.73539026     0.19500
C2678       C  0.59613678  0.73080660  0.75364099     0.24600
C2679       C  0.61340065  0.72818788  0.77055567    -0.23400
C2680       C  0.63177019  0.74414969  0.77136942     0.19500
F2681       F  0.64802609  0.74307728  0.78833123    -0.13400
F2682       F  0.65440570  0.77289747  0.75278247    -0.15700
F2683       F  0.57696538  0.71723741  0.75380434    -0.15700
F2684       F  0.58358988  0.74700898  0.71801398    -0.13400
C2685       C  0.26298162  0.25655835  0.38047867     0.24600
C2686       C  0.28162165  0.25651977  0.39612895    -0.23500
C2687       C  0.28246642  0.27357080  0.41345476     0.19500
C2688       C  0.26727685  0.29237295  0.41279452     0.24600
C2689       C  0.25080078  0.29418436  0.39496689    -0.23400
C2690       C  0.24767568  0.27528692  0.37990678     0.19500
F2691       F  0.23100365  0.27564741  0.36333286    -0.13400
F2692       F  0.26050497  0.23963030  0.36442185    -0.15700
F2693       F  0.26938301  0.30911508  0.42908504    -0.15700
F2694       F  0.29888836  0.27274081  0.43027702    -0.13400
C2695       C  0.34265586  0.25963456  0.48817090     0.24600
C2696       C  0.36240100  0.24597952  0.48412836    -0.23500
C2697       C  0.38092533  0.24652598  0.49984464     0.19500
C2698       C  0.38108604  0.26283585  0.51750504     0.24600
C2699       C  0.36255128  0.27850419  0.51973835    -0.23400
C2700       C  0.34275343  0.27590188  0.50594818     0.19500
F2701       F  0.32427683  0.29028672  0.50859490    -0.13400
F2702       F  0.32397268  0.25832720  0.47397484    -0.15700
F2703       F  0.40063643  0.26507001  0.53032882    -0.15700
F2704       F  0.40016675  0.23336888  0.49647183    -0.13400
C2705       C  0.39061551  0.12604759  0.27473479     0.24600
C2706       C  0.37920618  0.14595784  0.28269954    -0.23500
C2707       C  0.36967994  0.16128056  0.26576686     0.19500
C2708       C  0.37196138  0.15701178  0.24183771     0.24600
C2709       C  0.38373522  0.13732614  0.23392773    -0.23400
C2710       C  0.39281786  0.12175969  0.25082937     0.19500
F2711       F  0.40408945  0.10213938  0.24431786    -0.13400
F2712       F  0.39982128  0.11064574  0.28999010    -0.15700
F2713       F  0.36332471  0.17265187  0.22648136    -0.15700
F2714       F  0.35824985  0.18081812  0.27217857    -0.13400
C2715       C  0.49170200  0.01373498  0.13680641     0.24600
C2716       C  0.49289902  0.03405653  0.12341654    -0.23500
C2717       C  0.50851133  0.03510564  0.10481361     0.19500
C2718       C  0.52530549  0.01805345  0.10204963     0.24600
C2719       C  0.52682708  0.99980251  0.11812414    -0.23400
C2720       C  0.50863634  0.99660323  0.13414922     0.19500
F2721       F  0.50825529  0.97799003  0.14859921    -0.13400
F2722       F  0.47565196  0.01128810  0.15382812    -0.15700
F2723       F  0.54079378  0.02027984  0.08448260    -0.15700
F2724       F  0.50845086  0.05347044  0.09015641    -0.13400
C2725       C  0.49349193  0.13149651  0.02247622     0.24600
C2726       C  0.49654074  0.11632295  0.04134802    -0.23500
C2727       C  0.51278258  0.09826315  0.03968798     0.19500
C2728       C  0.52793876  0.09740184  0.02103592     0.24600
C2729       C  0.52705065  0.11460978  0.00385472    -0.23400
C2730       C  0.50874252  0.13070782  0.00381613     0.19500
F2731       F  0.50694584  0.14732399  0.98723246    -0.13400
F2732       F  0.47728924  0.14858921  0.02298700    -0.15700
F2733       F  0.54473660  0.08087466  0.02078537    -0.15700
F2734       F  0.51500405  0.08217459  0.05664262    -0.13400
C2735       C  0.35366259  0.64015471  0.25235124     0.24600
C2736       C  0.36836642  0.63062283  0.23491872    -0.23500
C2737       C  0.38881237  0.61967034  0.24215219     0.19500
C2738       C  0.39371332  0.61710427  0.26592204     0.24600
C2739       C  0.37797009  0.62484268  0.28322377    -0.23400
C2740       C  0.35837861  0.63716548  0.27607118     0.19500
F2741       F  0.34296448  0.64512245  0.29197800    -0.13400
F2742       F  0.33405520  0.65185683  0.24667956    -0.15700
F2743       F  0.41390714  0.60663199  0.27197078    -0.15700
F2744       F  0.40396084  0.61108338  0.22633591    -0.13400
C2745       C  0.23200744  0.65464147  0.04154293     0.24600
C2746       C  0.24934822  0.63757943  0.04295627    -0.23500
C2747       C  0.25209976  0.62179036  0.02463896     0.19500
C2748       C  0.23582046  0.62108402  0.00685194     0.24600
C2749       C  0.21667107  0.63618824  0.00727799    -0.23400
C2750       C  0.21567873  0.65384158  0.02390595     0.19500
F2751       F  0.19815440  0.66959175  0.02382484    -0.13400
F2752       F  0.23016223  0.67152201  0.05773249    -0.15700
F2753       F  0.23777392  0.60421005  0.99063849    -0.15700
F2754       F  0.26928899  0.60568650  0.02489967    -0.13400
C2755       C  0.37201599  0.26504840  0.64781648     0.24600
C2756       C  0.36479273  0.27726492  0.62792788    -0.23500
C2757       C  0.35588204  0.26428792  0.60921644     0.19500
C2758       C  0.35393421  0.23997905  0.61042927     0.24600
C2759       C  0.36111413  0.22773447  0.63025400    -0.23400
C2760       C  0.36989467  0.24063217  0.64907956     0.19500
F2761       F  0.37624447  0.22952583  0.66886155    -0.13400
F2762       F  0.38184775  0.27663005  0.66570687    -0.15700
F2763       F  0.34428611  0.22841426  0.59241294    -0.15700
F2764       F  0.34899468  0.27528056  0.58954253    -0.13400
C2765       C  0.36491006  0.11220714  0.51736320     0.24600
C2766       C  0.36253724  0.13083480  0.53311650    -0.23500
C2767       C  0.36020798  0.15327059  0.52424745     0.19500
C2768       C  0.36065517  0.15715248  0.50026342     0.24600
C2769       C  0.36435686  0.13876992  0.48438195    -0.23400
C2770       C  0.36628066  0.11617534  0.49324856     0.19500
F2771       F  0.37055495  0.09815348  0.47877901    -0.13400
F2772       F  0.36632608  0.09011997  0.52543780    -0.15700
F2773       F  0.35774174  0.17922189  0.49251958    -0.15700
F2774       F  0.35653200  0.17139560  0.53877027    -0.13400
C2775       C  0.24195797  0.02753953  0.66685414     0.24600
C2776       C  0.25836587  0.02700172  0.64887360    -0.23500
C2777       C  0.25873734  0.00807104  0.63361957     0.19500
C2778       C  0.24049125  0.99231183  0.63375414     0.24600
C2779       C  0.22182179  0.99539554  0.64915897    -0.23400
C2780       C  0.22369622  0.01184189  0.66697627     0.19500
F2781       F  0.20716870  0.01376814  0.68361461    -0.13400
F2782       F  0.24251494  0.04448836  0.68314027    -0.15700
F2783       F  0.24000885  0.97565053  0.61719127    -0.15700
F2784       F  0.27512980  0.00616613  0.61686173    -0.13400
C2785       C  0.48900935  0.24707388  0.38920802     0.24600
C2786       C  0.46913273  0.24910298  0.37537996    -0.23500
C2787       C  0.46978396  0.26314320  0.35547139     0.19500
C2788       C  0.48808491  0.27837280  0.35209001     0.24600
C2789       C  0.50572484  0.27982946  0.36878322    -0.23400
C2790       C  0.50741139  0.26238659  0.38583191     0.19500
F2791       F  0.52561950  0.26159851  0.40067282    -0.13400
F2792       F  0.48966601  0.23207824  0.40737404    -0.15700
F2793       F  0.48754856  0.29280356  0.33346720    -0.15700
F2794       F  0.45206069  0.26318406  0.34003348    -0.13400
C2795       C  0.48257958  0.36960643  0.50899142     0.24600
C2796       C  0.46200323  0.38258009  0.50753799    -0.23500
C2797       C  0.45900850  0.39815779  0.48901296     0.19500
C2798       C  0.47470172  0.39850600  0.47072846     0.24600
C2799       C  0.49374124  0.38329767  0.47069932    -0.23400
C2800       C  0.49842966  0.37008044  0.49072876     0.19500
F2801       F  0.51749262  0.35631659  0.49208172    -0.13400
F2802       F  0.48666908  0.35506548  0.52704858    -0.15700
F2803       F  0.47062423  0.41317512  0.45279363    -0.15700
F2804       F  0.44018296  0.41225811  0.48795204    -0.13400
C2805       C  0.63349625  0.37677266  0.49464322     0.24600
C2806       C  0.61009749  0.37688274  0.48790936    -0.23500
C2807       C  0.59307786  0.37783336  0.50567057     0.19500
C2808       C  0.59922955  0.37910314  0.52920537     0.24600
C2809       C  0.62251015  0.37975429  0.53584075    -0.23400
C2810       C  0.63961168  0.37843726  0.51828661     0.19500
F2811       F  0.66237939  0.37934055  0.52406663    -0.13400
F2812       F  0.65044720  0.37488416  0.47842818    -0.15700
F2813       F  0.58233852  0.38157576  0.54541560    -0.15700
F2814       F  0.57022176  0.37876187  0.50031878    -0.13400
C2815       C  0.46189070  0.48153291  0.40616042     0.24600
C2816       C  0.46048303  0.49924882  0.38947711    -0.23500
C2817       C  0.47832637  0.50163926  0.37298857     0.19500
C2818       C  0.49576932  0.48500195  0.37153875     0.24600
C2819       C  0.49579137  0.46603082  0.38681400    -0.23400
C2820       C  0.47944035  0.46502225  0.40479695     0.19500
F2821       F  0.47998270  0.44753917  0.42057491    -0.13400
F2822       F  0.44597991  0.47972059  0.42338671    -0.15700
F2823       F  0.51127778  0.48646788  0.35390161    -0.15700
F2824       F  0.47800545  0.51899680  0.35704042    -0.13400
C2825       C  0.50924880  0.64075604  0.38830556     0.24600
C2826       C  0.52615909  0.62303394  0.38682452    -0.23500
C2827       C  0.51882282  0.60029741  0.38320904     0.19500
C2828       C  0.49513094  0.59512752  0.38228403     0.24600
C2829       C  0.47796876  0.61280070  0.38410682    -0.23400
C2830       C  0.48545852  0.63573052  0.38683742     0.19500
F2831       F  0.46981999  0.65326439  0.38829625    -0.13400
F2832       F  0.51584514  0.66300247  0.39201814    -0.15700
F2833       F  0.48922172  0.57242369  0.38105262    -0.15700
F2834       F  0.53452261  0.58273385  0.38259793    -0.13400
C2835       C  0.51222014  0.62777050  0.50461926     0.24600
C2836       C  0.52950064  0.61061036  0.50635270    -0.23500
C2837       C  0.52806160  0.59400220  0.52416836     0.19500
C2838       C  0.51182571  0.59658213  0.54180182     0.24600
C2839       C  0.49650575  0.61551925  0.54166012    -0.23400
C2840       C  0.49582702  0.63024724  0.52220744     0.19500
F2841       F  0.48080716  0.64832374  0.52100600    -0.13400
F2842       F  0.51228020  0.64344233  0.48701525    -0.15700
F2843       F  0.51193629  0.58120404  0.55966117    -0.15700
F2844       F  0.54307013  0.57588882  0.52526077    -0.13400
C2845       C  0.63235093  0.50883988  0.50024221     0.24600
C2846       C  0.61445057  0.52493478  0.49679601    -0.23500
C2847       C  0.59344595  0.52242126  0.50878894     0.19500
C2848       C  0.59142909  0.50582809  0.52623799     0.24600
C2849       C  0.61050135  0.49181671  0.53189124    -0.23400
C2850       C  0.63037530  0.49226079  0.51769650     0.19500
F2851       F  0.64898743  0.47856757  0.52229548    -0.13400
F2852       F  0.65284849  0.51092385  0.48887763    -0.15700
F2853       F  0.57145563  0.50455207  0.53861833    -0.15700
F2854       F  0.57554475  0.53721520  0.50479680    -0.13400
C2855       C  0.60084524  0.51900202  0.38116359     0.24600
C2856       C  0.62183505  0.52677292  0.39025416    -0.23500
C2857       C  0.63773580  0.50991597  0.39877180     0.19500
C2858       C  0.63248636  0.48612915  0.39875137     0.24600
C2859       C  0.61136574  0.47830341  0.38988080    -0.23400
C2860       C  0.59561116  0.49521491  0.38105457     0.19500
F2861       F  0.57463125  0.48894712  0.37266468    -0.13400
F2862       F  0.58488841  0.53442347  0.37326682    -0.15700
F2863       F  0.64819315  0.47085315  0.40736650    -0.15700
F2864       F  0.65857216  0.51644947  0.40742640    -0.13400
C2865       C  0.64653435  0.71332624  0.52853518     0.24600
C2866       C  0.62694849  0.71131192  0.51437726    -0.23500
C2867       C  0.60938991  0.72816660  0.51544053     0.19500
C2868       C  0.61046781  0.74559076  0.53209606     0.24600
C2869       C  0.62908403  0.74613301  0.54781458    -0.23400
C2870       C  0.64760489  0.73059926  0.54514396     0.19500
F2871       F  0.66650580  0.73162939  0.55905864    -0.13400
F2872       F  0.66445379  0.69819629  0.52674163    -0.15700
F2873       F  0.59249508  0.76071498  0.53390161    -0.15700
F2874       F  0.59036822  0.72675718  0.50169596    -0.13400
C2875       C  0.37510187  0.23934200  0.15488499     0.24600
C2876       C  0.38457190  0.23234939  0.13371595    -0.23500
C2877       C  0.39057105  0.24970984  0.11733105     0.19500
C2878       C  0.38846750  0.27342798  0.12259676     0.24600
C2879       C  0.38009047  0.28051531  0.14430335    -0.23400
C2880       C  0.37294174  0.26299987  0.16018239     0.19500
F2881       F  0.36445947  0.26856067  0.18140157    -0.13400
F2882       F  0.36922071  0.22329768  0.17110187    -0.15700
F2883       F  0.39478437  0.28933833  0.10643732    -0.15700
F2884       F  0.39873277  0.24374032  0.09607734    -0.13400
C2885       C  0.38733532  0.49577882  0.13066548     0.24600
C2886       C  0.37065287  0.48138865  0.14130321    -0.23500
C2887       C  0.35171866  0.49197971  0.15234624     0.19500
C2888       C  0.34909897  0.51619379  0.15213237     0.24600
C2889       C  0.36566466  0.53063347  0.14135548    -0.23400
C2890       C  0.38472624  0.52010541  0.13045096     0.19500
F2891       F  0.40033658  0.53331320  0.11883350    -0.13400
F2892       F  0.40647581  0.48622830  0.12085668    -0.15700
F2893       F  0.33003073  0.52563374  0.16223756    -0.15700
F2894       F  0.33621571  0.47885963  0.16424038    -0.13400
C2895       C  0.38615559  0.49152858  0.25816153     0.24600
C2896       C  0.36728192  0.47718640  0.25328259    -0.23500
C2897       C  0.34594628  0.48085561  0.26434623     0.19500
C2898       C  0.34418224  0.49701804  0.28210590     0.24600
C2899       C  0.36368986  0.50979072  0.28858959    -0.23400
C2900       C  0.38439425  0.50780154  0.27578072     0.19500
F2901       F  0.40371001  0.51969882  0.28186768    -0.13400
F2902       F  0.40704458  0.48797335  0.24788783    -0.15700
F2903       F  0.32385866  0.49930609  0.29375134    -0.15700
F2904       F  0.32729190  0.46767278  0.25895689    -0.13400
C2905       C  0.24787668  0.38005727  0.27453371     0.24600
C2906       C  0.24977197  0.39659110  0.29231723    -0.23500
C2907       C  0.26748527  0.41322049  0.29100854     0.19500
C2908       C  0.28494537  0.41111600  0.27441167     0.24600
C2909       C  0.28475993  0.39259755  0.25865398    -0.23400
C2910       C  0.26528152  0.37801639  0.25785935     0.19500
F2911       F  0.26379516  0.36050856  0.24230157    -0.13400
F2912       F  0.23017123  0.36462920  0.27420307    -0.15700
F2913       F  0.30255968  0.42664826  0.27440684    -0.15700
F2914       F  0.26847991  0.43103223  0.30628084    -0.13400
C2915       C  0.38377314  0.26991527  0.25752810     0.24600
C2916       C  0.39175403  0.29236326  0.26226462    -0.23500
C2917       C  0.40287604  0.29663480  0.28354889     0.19500
C2918       C  0.40227233  0.28011879  0.30110879     0.24600
C2919       C  0.39088049  0.25894191  0.29753380    -0.23400
C2920       C  0.38358358  0.25320642  0.27499614     0.19500
F2921       F  0.37513224  0.23194306  0.26990454    -0.13400
F2922       F  0.37499306  0.26428320  0.23651024    -0.15700
F2923       F  0.41145672  0.28562747  0.32203832    -0.15700
F2924       F  0.41291776  0.31738557  0.28811989    -0.13400
C2925       C  0.47698138  0.35146609  0.26453736     0.24600
C2926       C  0.47370012  0.37181741  0.25152752    -0.23500
C2927       C  0.49080926  0.38904214  0.25167224     0.19500
C2928       C  0.50901777  0.38764179  0.26744242     0.24600
C2929       C  0.51030415  0.36882115  0.28295836    -0.23400
C2930       C  0.49534822  0.34992533  0.28010723     0.19500
F2931       F  0.49745677  0.33078856  0.29372653    -0.13400
F2932       F  0.46164657  0.33372196  0.26323114    -0.15700
F2933       F  0.52352568  0.40599791  0.26926684    -0.15700
F2934       F  0.48849231  0.40851816  0.23859928    -0.13400
C2935       C  0.22431632  0.51084638  0.16040148     0.24600
C2936       C  0.22416616  0.49663720  0.14066920    -0.23500
C2937       C  0.24175230  0.49885977  0.12405472     0.19500
C2938       C  0.25744520  0.51710401  0.12563155     0.24600
C2939       C  0.25539428  0.53342207  0.14366905    -0.23400
C2940       C  0.23981617  0.52922189  0.16188204     0.19500
F2941       F  0.23872102  0.54355627  0.18047627    -0.13400
F2942       F  0.20828394  0.50794921  0.17741476    -0.15700
F2943       F  0.27300916  0.52004687  0.10821294    -0.15700
F2944       F  0.24217149  0.48519142  0.10494368    -0.13400
C2945       C  0.24298649  0.39514149  0.12299890     0.24600
C2946       C  0.22634615  0.38645557  0.13903882    -0.23500
C2947       C  0.23452850  0.37546154  0.15905338     0.19500
C2948       C  0.25848062  0.37352415  0.16317097     0.24600
C2949       C  0.27515579  0.38266617  0.14737607    -0.23400
C2950       C  0.26691199  0.39332356  0.12715999     0.19500
F2951       F  0.28191564  0.40203775  0.11127381    -0.13400
F2952       F  0.23619487  0.40567212  0.10303766    -0.15700
F2953       F  0.26514913  0.36287201  0.18305914    -0.15700
F2954       F  0.21941621  0.36731470  0.17514578    -0.13400
C2955       C  0.11534842  0.37359519  0.24731481     0.24600
C2956       C  0.12893143  0.38964554  0.23485496    -0.23500
C2957       C  0.14380274  0.40425735  0.24736540     0.19500
C2958       C  0.14567721  0.40248563  0.27151164     0.24600
C2959       C  0.13239001  0.38637444  0.28403924    -0.23400
C2960       C  0.11732387  0.37173990  0.27168321     0.19500
F2961       F  0.10504558  0.35524605  0.28312648    -0.13400
F2962       F  0.09975850  0.36019566  0.23600285    -0.15700
F2963       F  0.16106079  0.41621196  0.28273393    -0.15700
F2964       F  0.15630782  0.42070979  0.23609755    -0.13400
C2965       C  0.10185619  0.51613088  0.03850319     0.24600
C2966       C  0.11780966  0.49780594  0.03698966    -0.23500
C2967       C  0.13067163  0.49484106  0.01649349     0.19500
C2968       C  0.12999065  0.51182628  0.99924916     0.24600
C2969       C  0.11648920  0.53190021  0.00243739    -0.23400
C2970       C  0.10122014  0.53307853  0.02140638     0.19500
F2971       F  0.08694189  0.55157587  0.02444997    -0.13400
F2972       F  0.08808523  0.51865998  0.05742786    -0.15700
F2973       F  0.14418442  0.50944564  0.98066146    -0.15700
F2974       F  0.14560035  0.47684215  0.01393621    -0.13400
C2975       C  0.00108790  0.51871048  0.13986196     0.24600
C2976       C  0.00102459  0.53757438  0.12447843    -0.23500
C2977       C  0.01791868  0.53900986  0.10704946     0.19500
C2978       C  0.03605719  0.52324308  0.10646708     0.24600
C2979       C  0.03768354  0.50598138  0.12356268    -0.23400
C2980       C  0.01934771  0.50295370  0.13940247     0.19500
F2981       F  0.01995647  0.48602911  0.15579953    -0.13400
F2982       F  0.98495325  0.51671811  0.15686566    -0.15700
F2983       F  0.05248695  0.52569741  0.08983257    -0.15700
F2984       F  0.01777702  0.55668173  0.09151317    -0.13400
C2985       C  0.23407890  0.38908537  0.62898896     0.24600
C2986       C  0.22592240  0.36624319  0.62972094    -0.23500
C2987       C  0.24244312  0.34806318  0.63176941     0.19500
C2988       C  0.26633682  0.35259936  0.63253996     0.24600
C2989       C  0.27446795  0.37537573  0.63112518    -0.23400
C2990       C  0.25801873  0.39358289  0.62978557     0.19500
F2991       F  0.26530070  0.41589570  0.62834687    -0.13400
F2992       F  0.21895995  0.40707943  0.62764660    -0.15700
F2993       F  0.28154008  0.33460405  0.63289805    -0.15700
F2994       F  0.23554063  0.32560259  0.63204944    -0.13400
C2995       C  0.24934765  0.23390092  0.63538879     0.24600
C2996       C  0.24430202  0.21371042  0.62272050    -0.23500
C2997       C  0.22457717  0.21349773  0.60847660     0.19500
C2998       C  0.20849688  0.23144986  0.60969157     0.24600
C2999       C  0.21195210  0.25013294  0.62487951    -0.23400
C3000       C  0.23326589  0.25198749  0.63649883     0.19500
F3001       F  0.23807592  0.27038840  0.65021621    -0.13400
F3002       F  0.26916688  0.23566383  0.64789328    -0.15700
F3003       F  0.18896239  0.22991005  0.59675179    -0.15700
F3004       F  0.22020960  0.19563213  0.59392860    -0.13400
C3005       C  0.10788710  0.37133771  0.51766002     0.24600
C3006       C  0.12686454  0.36821784  0.53286503    -0.23500
C3007       C  0.14901422  0.36563965  0.52323228     0.19500
C3008       C  0.15219915  0.36661407  0.49909257     0.24600
C3009       C  0.13332016  0.37015493  0.48389492    -0.23400
C3010       C  0.11108908  0.37247834  0.49345349     0.19500
F3011       F  0.09262472  0.37666577  0.47950049    -0.13400
F3012       F  0.08609664  0.37314921  0.52635492    -0.15700
F3013       F  0.17390179  0.36379919  0.49042509    -0.15700
F3014       F  0.16743036  0.36096846  0.53709408    -0.13400
C3015       C  0.00857438  0.26355741  0.63250089     0.24600
C3016       C  0.02614434  0.26237278  0.64928473    -0.23500
C3017       C  0.02405624  0.24642241  0.66762793     0.19500
C3018       C  0.00689846  0.22950638  0.66707820     0.24600
C3019       C  0.99127975  0.22865077  0.64845571    -0.23400
C3020       C  0.99121709  0.24677844  0.63207175     0.19500
F3021       F  0.97597702  0.24707911  0.61421318    -0.13400
F3022       F  0.00939425  0.27947094  0.61514090    -0.15700
F3023       F  0.00648812  0.21309103  0.68398624    -0.15700
F3024       F  0.03938511  0.24633003  0.68542280    -0.13400
C3025       C  0.61566494  0.38901982  0.26957852     0.24600
C3026       C  0.61779849  0.37066350  0.28587144    -0.23500
C3027       C  0.61951284  0.34803227  0.27735586     0.19500
C3028       C  0.61981058  0.34393853  0.25329020     0.24600
C3029       C  0.61897815  0.36246584  0.23691192    -0.23400
C3030       C  0.61634878  0.38499328  0.24549354     0.19500
F3031       F  0.61495909  0.40321234  0.23063674    -0.13400
F3032       F  0.61280310  0.41112716  0.27707181    -0.15700
F3033       F  0.62023869  0.32155925  0.24607905    -0.15700
F3034       F  0.61955680  0.32975204  0.29224327    -0.13400
C3035       C  0.49940714  0.23830870  0.12438141     0.24600
C3036       C  0.50075706  0.22132858  0.14189279    -0.23500
C3037       C  0.51765332  0.22326646  0.15925047     0.19500
C3038       C  0.53464562  0.24017493  0.15753368     0.24600
C3039       C  0.53480084  0.25548070  0.13861981    -0.23400
C3040       C  0.51645987  0.25522520  0.12265322     0.19500
F3041       F  0.51608336  0.26979085  0.10413669    -0.13400
F3042       F  0.48283128  0.23744372  0.10772861    -0.15700
F3043       F  0.55158509  0.24092264  0.17381183    -0.15700
F3044       F  0.51836209  0.20825283  0.17738072    -0.13400
C3045       C  0.51727514  0.39207585  0.14203038     0.24600
C3046       C  0.52484328  0.36995847  0.13553944    -0.23500
C3047       C  0.50781121  0.35324842  0.12954137     0.19500
C3048       C  0.48404002  0.35806844  0.13162521     0.24600
C3049       C  0.47657790  0.37977338  0.13936196    -0.23400
C3050       C  0.49350153  0.39700902  0.14363335     0.19500
F3051       F  0.48702163  0.41876095  0.14984441    -0.13400
F3052       F  0.53279597  0.40903448  0.14670710    -0.15700
F3053       F  0.46845142  0.34100163  0.12752124    -0.15700
F3054       F  0.51400841  0.33172600  0.12243096    -0.13400
C3055       C  0.61298153  0.24011829  0.00511526     0.24600
C3056       C  0.62640034  0.21987709  0.00764780    -0.23500
C3057       C  0.64408938  0.21922857  0.02430341     0.19500
C3058       C  0.64700442  0.23763788  0.03947928     0.24600
C3059       C  0.63207416  0.25690176  0.03848287    -0.23400
C3060       C  0.61578440  0.25850891  0.02044419     0.19500
F3061       F  0.60113523  0.27683321  0.01864457    -0.13400
F3062       F  0.59580700  0.24157777  0.98916046    -0.15700
F3063       F  0.66355264  0.23592825  0.05612195    -0.15700
F3064       F  0.65796806  0.20033052  0.02663786    -0.13400
C3065       C  0.24789933  0.13559765  0.74313094     0.24600
C3066       C  0.24616201  0.11808410  0.72631587    -0.23500
C3067       C  0.22738721  0.10258768  0.72736405     0.19500
C3068       C  0.20918580  0.10656471  0.74267411     0.24600
C3069       C  0.20977145  0.12556097  0.75774333    -0.23400
C3070       C  0.22977607  0.13937078  0.75870539     0.19500
F3071       F  0.23115982  0.15768559  0.77333029    -0.13400
F3072       F  0.26631625  0.15015904  0.74353346    -0.15700
F3073       F  0.19063297  0.09218679  0.74225700    -0.15700
F3074       F  0.22608876  0.08400556  0.71307120    -0.13400
C3075       C  0.14467227  0.03770458  0.74372446     0.24600
C3076       C  0.12503501  0.04064576  0.75773995    -0.23500
C3077       C  0.10778687  0.02349505  0.75800806     0.19500
C3078       C  0.10923621  0.00466045  0.74294647     0.24600
C3079       C  0.12808536  0.00271434  0.72762014    -0.23400
C3080       C  0.14621644  0.01883537  0.72882276     0.19500
F3081       F  0.16495191  0.01691705  0.71468886    -0.13400
F3082       F  0.16212306  0.05338430  0.74399768    -0.15700
F3083       F  0.09119657  0.98967834  0.74197256    -0.15700
F3084       F  0.08857518  0.02590726  0.77140108    -0.13400
C3085       C  0.12508911  0.26460634  0.75094528     0.24600
C3086       C  0.11071131  0.26290815  0.73140217    -0.23500
C3087       C  0.09280575  0.24651599  0.73127633     0.19500
C3088       C  0.09169620  0.22967356  0.74850762     0.24600
C3089       C  0.10843196  0.22913819  0.76611755    -0.23400
C3090       C  0.12391733  0.24782948  0.76827781     0.19500
F3091       F  0.13955530  0.24890594  0.78574107    -0.13400
F3092       F  0.14187572  0.28092809  0.75239201    -0.15700
F3093       F  0.07533376  0.21289677  0.74696531    -0.15700
F3094       F  0.07744977  0.24568749  0.71352476    -0.13400
C3095       C  0.00356910  0.12778601  0.76890159     0.24600
C3096       C  0.02134199  0.14440776  0.76807894    -0.23500
C3097       C  0.01874901  0.16381141  0.75354070     0.19500
C3098       C  0.00123752  0.16427312  0.73702099     0.24600
C3099       C  0.98650296  0.14514086  0.73458770    -0.23400
C3100       C  0.98611237  0.12814913  0.75210588     0.19500
F3101       F  0.97050634  0.11060806  0.75157099    -0.13400
F3102       F  0.00437930  0.10991218  0.78423325    -0.15700
F3103       F  0.99990840  0.18255623  0.72222241    -0.15700
F3104       F  0.03410089  0.18156559  0.75414346    -0.13400
C3105       C  0.75967081  0.74514202  0.64030503     0.24600
C3106       C  0.75903288  0.72841479  0.62265864    -0.23500
C3107       C  0.74250983  0.73052540  0.60488824     0.19500
C3108       C  0.72433541  0.74622677  0.60711758     0.24600
C3109       C  0.72300495  0.76047227  0.62668872    -0.23400
C3110       C  0.74166278  0.76115409  0.64233025     0.19500
F3111       F  0.74134587  0.77542026  0.66099553    -0.13400
F3112       F  0.77623811  0.74452408  0.65697943    -0.15700
F3113       F  0.70731771  0.74655073  0.59088759    -0.15700
F3114       F  0.74297106  0.71626189  0.58621576    -0.13400
C3115       C  0.74517518  0.52393441  0.62396438     0.24600
C3116       C  0.74425752  0.54335100  0.63861584    -0.23500
C3117       C  0.72527226  0.54590658  0.65374456     0.19500
C3118       C  0.70664682  0.53056008  0.65274260     0.24600
C3119       C  0.70663675  0.51239986  0.63651321    -0.23400
C3120       C  0.72654599  0.50863995  0.62292247     0.19500
F3121       F  0.72754832  0.49094787  0.60748686    -0.13400
F3122       F  0.76328748  0.52039202  0.60941134    -0.15700
F3123       F  0.68858862  0.53376464  0.66748315    -0.15700
F3124       F  0.72438116  0.56371936  0.66907975    -0.13400
C3125       C  0.74738133  0.64864550  0.73979770     0.24600
C3126       C  0.74958745  0.62935953  0.72514086    -0.23500
C3127       C  0.73596759  0.60964366  0.72901751     0.19500
C3128       C  0.71908548  0.60982736  0.74623933     0.24600
C3129       C  0.71555048  0.62979078  0.75963268    -0.23400
C3130       C  0.73035761  0.64887955  0.75698109     0.19500
F3131       F  0.72696558  0.66852608  0.76945251    -0.13400
F3132       F  0.76014301  0.66804514  0.73611145    -0.15700
F3133       F  0.70557025  0.59082638  0.74923407    -0.15700
F3134       F  0.73841480  0.59053586  0.71552739    -0.13400
C3135       C  0.75585342  0.62447747  0.51974935     0.24600
C3136       C  0.75301776  0.63894336  0.53915437    -0.23500
C3137       C  0.73277591  0.65244471  0.54100302     0.19500
C3138       C  0.71444032  0.64898321  0.52580622     0.24600
C3139       C  0.71613801  0.63229030  0.50824877    -0.23400
C3140       C  0.73746328  0.62099671  0.50453487     0.19500
F3141       F  0.74020753  0.60519970  0.48737892    -0.13400
F3142       F  0.77571633  0.61244049  0.51610661    -0.15700
F3143       F  0.69464065  0.66128644  0.52896161    -0.15700
F3144       F  0.73009020  0.66803887  0.55840591    -0.13400
C3145       C  0.72287163  0.24183319  0.10493554     0.24600
C3146       C  0.72140831  0.25955752  0.12152872    -0.23500
C3147       C  0.73849967  0.26111116  0.13877716     0.19500
C3148       C  0.75421263  0.24300144  0.14183517     0.24600
C3149       C  0.75310351  0.22341833  0.12743657    -0.23400
C3150       C  0.73841816  0.22366605  0.10808816     0.19500
F3151       F  0.73820418  0.20569807  0.09294774    -0.13400
F3152       F  0.70827348  0.24123882  0.08651804    -0.15700
F3153       F  0.76871542  0.24370772  0.16030061    -0.15700
F3154       F  0.73861462  0.27889151  0.15414827    -0.13400
C3155       C  0.74448902  0.11720071  0.02949284     0.24600
C3156       C  0.74633595  0.13640300  0.04430316    -0.23500
C3157       C  0.73239281  0.15599312  0.04053988     0.19500
C3158       C  0.71539448  0.15562051  0.02345165     0.24600
C3159       C  0.71226038  0.13567493  0.00996383    -0.23400
C3160       C  0.72753081  0.11685333  0.01238006     0.19500
F3161       F  0.72468729  0.09724293  0.99975135    -0.13400
F3162       F  0.75757161  0.09789529  0.03290370    -0.15700
F3163       F  0.70144425  0.17439603  0.02065207    -0.15700
F3164       F  0.73467991  0.17514787  0.05393801    -0.13400
C3165       C  0.73026245  0.03251391  0.15737605     0.24600
C3166       C  0.74752313  0.03525644  0.14042540    -0.23500
C3167       C  0.74964624  0.01856517  0.12272593     0.19500
C3168       C  0.73304020  0.00116633  0.12047086     0.24600
C3169       C  0.71423394  0.00033853  0.13587001    -0.23400
C3170       C  0.71371717  0.01521529  0.15502988     0.19500
F3171       F  0.69653983  0.01358657  0.17099523    -0.13400
F3172       F  0.72879036  0.04706405  0.17576643    -0.15700
F3173       F  0.73427914  0.98660221  0.10206788    -0.15700
F3174       F  0.76662201  0.02008944  0.10648787    -0.13400
C3175       C  0.13203956  0.52177765  0.39444258     0.24600
C3176       C  0.12668184  0.53010355  0.37222581    -0.23500
C3177       C  0.12077089  0.51357265  0.35494952     0.19500
C3178       C  0.12083318  0.48965380  0.35955684     0.24600
C3179       C  0.12706140  0.48135346  0.38144513    -0.23400
C3180       C  0.13219426  0.49776813  0.39899997     0.19500
F3181       F  0.13772246  0.49049978  0.42072154    -0.13400
F3182       F  0.13694901  0.53676288  0.41183304    -0.15700
F3183       F  0.11611135  0.47462760  0.34214070    -0.15700
F3184       F  0.11558902  0.52037315  0.33305200    -0.13400
C3185       C  0.24422044  0.62453766  0.35002324     0.24600
C3186       C  0.22754565  0.62524680  0.36818372    -0.23500
C3187       C  0.23566463  0.62470831  0.39107616     0.19500
C3188       C  0.25966266  0.62430188  0.39565441     0.24600
C3189       C  0.27623210  0.62479941  0.37748410    -0.23400
C3190       C  0.26813974  0.62463926  0.35462924     0.19500
F3191       F  0.28334585  0.62315643  0.33671580    -0.13400
F3192       F  0.23740552  0.62308173  0.32755004    -0.15700
F3193       F  0.26680217  0.62329339  0.41805502    -0.15700
F3194       F  0.22045815  0.62507971  0.40902871    -0.13400
C3195       C  0.25182292  0.63919653  0.24599182     0.24600
C3196       C  0.25351177  0.62126578  0.22967047    -0.23500
C3197       C  0.23794772  0.60264504  0.23058848     0.19500
C3198       C  0.21918025  0.60340075  0.24570339     0.24600
C3199       C  0.21599296  0.62270089  0.26006030    -0.23400
C3200       C  0.23322324  0.63979800  0.26124669     0.19500
F3201       F  0.23091644  0.65842835  0.27540967    -0.13400
F3202       F  0.26644852  0.65755411  0.24555429    -0.15700
F3203       F  0.20368415  0.58580886  0.24558306    -0.15700
F3204       F  0.24001651  0.58456145  0.21568893    -0.13400
C3205       C  0.15002481  0.54223470  0.24162842     0.24600
C3206       C  0.13083114  0.54189974  0.25657761    -0.23500
C3207       C  0.11517786  0.52341831  0.25567967     0.19500
C3208       C  0.11782200  0.50629725  0.23896466     0.24600
C3209       C  0.13616594  0.50749654  0.22288761    -0.23400
C3210       C  0.15281056  0.52504172  0.22499756     0.19500
F3211       F  0.17134038  0.52606382  0.21052092    -0.13400
F3212       F  0.16564976  0.55969887  0.24257864    -0.15700
F3213       F  0.10129239  0.48968576  0.23744457    -0.15700
F3214       F  0.09612739  0.52294345  0.26947316    -0.13400
C3215       C  0.99338411  0.62495281  0.24784893     0.24600
C3216       C  0.99542851  0.63953710  0.22835842    -0.23500
C3217       C  0.01171360  0.65754663  0.22860967     0.19500
C3218       C  0.02781485  0.65887496  0.24646597     0.24600
C3219       C  0.02792863  0.64209378  0.26414875    -0.23400
C3220       C  0.00963405  0.62613071  0.26559163     0.19500
F3221       F  0.00861730  0.61002028  0.28273086    -0.13400
F3222       F  0.97722043  0.60798783  0.24892449    -0.15700
F3223       F  0.04437078  0.67552072  0.24553534    -0.15700
F3224       F  0.01298700  0.67300506  0.21086777    -0.13400
C3225       C  0.12930952  0.76060042  0.24469162     0.24600
C3226       C  0.11032945  0.76152582  0.22944936    -0.23500
C3227       C  0.09059125  0.74822540  0.23418356     0.19500
C3228       C  0.09117338  0.73168229  0.25181150     0.24600
C3229       C  0.11155195  0.72829659  0.26466586    -0.23400
C3230       C  0.12994798  0.74395611  0.26221220     0.19500
F3231       F  0.14963157  0.74149093  0.27484311    -0.13400
F3232       F  0.14833223  0.77392807  0.24112541    -0.15700
F3233       F  0.07242535  0.71795356  0.25529228    -0.15700
F3234       F  0.07129275  0.75031731  0.22091641    -0.13400
C3235       C  0.14679327  0.74012482  0.03903317     0.24600
C3236       C  0.12692772  0.75398118  0.04114247    -0.23500
C3237       C  0.10885359  0.75181283  0.02504131     0.19500
C3238       C  0.10976508  0.73457442  0.00826847     0.24600
C3239       C  0.12868512  0.71924190  0.00757052    -0.23400
C3240       C  0.14774164  0.72289374  0.02219246     0.19500
F3241       F  0.16687210  0.70924619  0.02074367    -0.13400
F3242       F  0.16486544  0.74273791  0.05381998    -0.15700
F3243       F  0.09114091  0.73157780  0.99425477    -0.15700
F3244       F  0.08926720  0.76474324  0.02690439    -0.13400
C3245       C  0.23089670  0.75680095  0.13940278     0.24600
C3246       C  0.21166494  0.75293669  0.12498472    -0.23500
C3247       C  0.21253445  0.73490686  0.10868688     0.19500
C3248       C  0.23074886  0.71914007  0.10906931     0.24600
C3249       C  0.24845063  0.72123143  0.12557230    -0.23400
C3250       C  0.24922926  0.74102243  0.13969164     0.19500
F3251       F  0.26649649  0.74416628  0.15527024    -0.13400
F3252       F  0.23120657  0.77471904  0.15460229    -0.15700
F3253       F  0.23031368  0.70098413  0.09418666    -0.15700
F3254       F  0.19535791  0.73180282  0.09299019    -0.13400
C3255       C  0.00829576  0.75999487  0.12556499     0.24600
C3256       C  0.02503208  0.76159863  0.14311210    -0.23500
C3257       C  0.02418449  0.74652067  0.16220584     0.19500
C3258       C  0.00881369  0.72805899  0.16222124     0.24600
C3259       C  0.99430233  0.72458254  0.14307922    -0.23400
C3260       C  0.99297309  0.74150379  0.12554584     0.19500
F3261       F  0.97881534  0.73883492  0.10696622    -0.13400
F3262       F  0.00850977  0.77441091  0.10693154    -0.15700
F3263       F  0.00920065  0.71282700  0.18018761    -0.15700
F3264       F  0.03959272  0.74852034  0.17985602    -0.13400
C3265       C  0.62333079  0.24523316  0.35875944     0.24600
C3266       C  0.62079981  0.22850899  0.37670089    -0.23500
C3267       C  0.61817841  0.23646628  0.39949679     0.19500
C3268       C  0.61747331  0.26043154  0.40407954     0.24600
C3269       C  0.61951021  0.27698592  0.38600615    -0.23400
C3270       C  0.62284657  0.26906483  0.36339387     0.19500
F3271       F  0.62376459  0.28436059  0.34547810    -0.13400
F3272       F  0.62525133  0.23859646  0.33630803    -0.15700
F3273       F  0.61406547  0.26757523  0.42623767    -0.15700
F3274       F  0.61646647  0.22116667  0.41732398    -0.13400
C3275       C  0.50642585  0.13778769  0.35457326     0.24600
C3276       C  0.52283919  0.13417963  0.37253837    -0.23500
C3277       C  0.51458702  0.13281855  0.39541734     0.19500
C3278       C  0.49065813  0.13493399  0.40012264     0.24600
C3279       C  0.47435383  0.13799526  0.38203337    -0.23400
C3280       C  0.48260222  0.13947582  0.35926831     0.19500
F3281       F  0.46770157  0.14401478  0.34163003    -0.13400
F3282       F  0.51347340  0.14038005  0.33225034    -0.15700
F3283       F  0.48334667  0.13410864  0.42249418    -0.15700
F3284       F  0.52954089  0.12887332  0.41313571    -0.13400
C3285       C  0.63461648  0.24261917  0.26231457     0.24600
C3286       C  0.61955121  0.22354558  0.26194977    -0.23500
C3287       C  0.60210725  0.22254351  0.24504029     0.19500
C3288       C  0.60177895  0.23839885  0.22690236     0.24600
C3289       C  0.61896297  0.25545598  0.22534478    -0.23400
C3290       C  0.63421325  0.25863828  0.24411418     0.19500
F3291       F  0.64997369  0.27605836  0.24403362    -0.13400
F3292       F  0.65105006  0.24474208  0.27895517    -0.15700
F3293       F  0.58522253  0.23631018  0.21039435    -0.15700
F3294       F  0.58619080  0.20526311  0.24521615    -0.13400
C3295       C  0.71980532  0.10145412  0.24810240     0.24600
C3296       C  0.71997624  0.11834913  0.26555591    -0.23500
C3297       C  0.73907375  0.13327984  0.26746741     0.19500
C3298       C  0.75608610  0.13338141  0.25035421     0.24600
C3299       C  0.75423182  0.11846108  0.23121587    -0.23400
C3300       C  0.73684733  0.10149263  0.23102946     0.19500
F3301       F  0.73544601  0.08593647  0.21345805    -0.13400
F3302       F  0.70230169  0.08588011  0.24669199    -0.15700
F3303       F  0.77285082  0.14974721  0.25150396    -0.15700
F3304       F  0.74024583  0.14949744  0.28439646    -0.13400
C3305       C  0.52902225  0.15763109  0.24528998     0.24600
C3306       C  0.53184185  0.13931191  0.26111851    -0.23500
C3307       C  0.51479473  0.12195745  0.26248578     0.19500
C3308       C  0.49691466  0.12134622  0.24631040     0.24600
C3309       C  0.49582510  0.13812761  0.22869028    -0.23400
C3310       C  0.51118678  0.15695309  0.22905891     0.19500
F3311       F  0.50969806  0.17401986  0.21286742    -0.13400
F3312       F  0.54405357  0.17566737  0.24484607    -0.15700
F3313       F  0.48229421  0.10297740  0.24650475    -0.15700
F3314       F  0.51652112  0.10431922  0.27802712    -0.13400
C3315       C  0.64878527  0.02210707  0.22075858     0.24600
C3316       C  0.62989050  0.00703848  0.21885563    -0.23500
C3317       C  0.61331709  0.00622981  0.23674503     0.19500
C3318       C  0.61419967  0.02215340  0.25483753     0.24600
C3319       C  0.63188715  0.03878028  0.25541621    -0.23400
C3320       C  0.64994044  0.03764606  0.23908858     0.19500
F3321       F  0.66833123  0.05216264  0.24032563    -0.13400
F3322       F  0.66586939  0.02228382  0.20462785    -0.15700
F3323       F  0.59672577  0.02243468  0.27060138    -0.15700
F3324       F  0.59520483  0.99130913  0.23584825    -0.13400
C3325       C  0.12877591  0.27275594  0.40540581     0.24600
C3326       C  0.13829388  0.28043751  0.38446850    -0.23500
C3327       C  0.14404400  0.26367521  0.36745486     0.19500
C3328       C  0.14057544  0.23986077  0.37145105     0.24600
C3329       C  0.13116110  0.23210195  0.39250205    -0.23400
C3330       C  0.12532450  0.24901189  0.40943294     0.19500
F3331       F  0.11679906  0.24269244  0.43041380    -0.13400
F3332       F  0.12390268  0.28812158  0.42253253    -0.15700
F3333       F  0.14620141  0.22451655  0.35456363    -0.15700
F3334       F  0.15289944  0.27031666  0.34667106    -0.13400
C3335       C  0.23237659  0.15380282  0.37544088     0.24600
C3336       C  0.22465890  0.13317852  0.38557370    -0.23500
C3337       C  0.24144795  0.11617025  0.39153603     0.19500
C3338       C  0.26528953  0.12060283  0.38964227     0.24600
C3339       C  0.27315461  0.14188244  0.38102211    -0.23400
C3340       C  0.25624168  0.15802992  0.37292530     0.19500
F3341       F  0.26259937  0.17849335  0.36322055    -0.13400
F3342       F  0.21695562  0.17054194  0.36934357    -0.15700
F3343       F  0.28057518  0.10408919  0.39655206    -0.15700
F3344       F  0.23478781  0.09517931  0.39983179    -0.13400
C3345       C  0.14596012  0.23906392  0.54116192     0.24600
C3346       C  0.12842641  0.25589235  0.54264534    -0.23500
C3347       C  0.11331609  0.25904393  0.52377859     0.19500
C3348       C  0.11347455  0.24325635  0.50545111     0.24600
C3349       C  0.12892964  0.22435505  0.50581125    -0.23400
C3350       C  0.14614244  0.22335672  0.52296256     0.19500
F3351       F  0.16244015  0.20632875  0.52286313    -0.13400
F3352       F  0.16248872  0.23716476  0.55772807    -0.15700
F3353       F  0.09727585  0.24551382  0.48858540    -0.15700
F3354       F  0.09721760  0.27624118  0.52384499    -0.13400
C3355       C  0.25035964  0.11544118  0.52116191     0.24600
C3356       C  0.25056884  0.13015248  0.54048888    -0.23500
C3357       C  0.23622486  0.14981776  0.54083658     0.19500
C3358       C  0.22021555  0.15349732  0.52321821     0.24600
C3359       C  0.21804392  0.13727942  0.50527063    -0.23400
C3360       C  0.23417517  0.11899531  0.50357983     0.19500
F3361       F  0.23308161  0.10335807  0.48606856    -0.13400
F3362       F  0.26421401  0.09642043  0.52024997    -0.15700
F3363       F  0.20614443  0.17235213  0.52432330    -0.15700
F3364       F  0.23704859  0.16498498  0.55876309    -0.13400
C3365       C  0.03567434  0.10979203  0.52787730     0.24600
C3366       C  0.03308698  0.12390863  0.50810298    -0.23500
C3367       C  0.01339798  0.13817074  0.50621661     0.19500
C3368       C  0.99800080  0.14009135  0.52474248     0.24600
C3369       C  0.00200144  0.12776833  0.54551549    -0.23400
C3370       C  0.02042684  0.11187850  0.54649106     0.19500
F3371       F  0.02419146  0.09882741  0.56575377    -0.13400
F3372       F  0.05363381  0.09464825  0.52968905    -0.15700
F3373       F  0.98017356  0.15528095  0.52260120    -0.15700
F3374       F  0.00961912  0.15153589  0.48720991    -0.13400
C3375       C  0.14077643  0.02179285  0.50674097     0.24600
C3376       C  0.12241071  0.03786393  0.50588120    -0.23500
C3377       C  0.10357570  0.03521321  0.52102192     0.19500
C3378       C  0.10447537  0.01898142  0.53882655     0.24600
C3379       C  0.12402063  0.00472033  0.54150066    -0.23400
C3380       C  0.14157063  0.00522607  0.52453879     0.19500
F3381       F  0.16032775  0.99107607  0.52622143    -0.13400
F3382       F  0.15875404  0.02322489  0.49160483    -0.15700
F3383       F  0.08648579  0.01782725  0.55394968    -0.15700
F3384       F  0.08460380  0.04904958  0.51921109    -0.13400
C3385       C  0.86963669  0.76130401  0.60387617     0.24600
C3386       C  0.86944120  0.77780530  0.62206025    -0.23500
C3387       C  0.87096998  0.76970016  0.64493090     0.19500
C3388       C  0.87225274  0.74574087  0.64947976     0.24600
C3389       C  0.87207285  0.72930358  0.63127816    -0.23400
C3390       C  0.87103378  0.73742829  0.60843963     0.19500
F3391       F  0.86951907  0.72221100  0.59059618    -0.13400
F3392       F  0.86755975  0.76825795  0.58147839    -0.15700
F3393       F  0.87274600  0.73843602  0.67187854    -0.15700
F3394       F  0.87148793  0.78488782  0.66284209    -0.13400
C3395       C  0.75666799  0.89525474  0.62560665     0.24600
C3396       C  0.77233855  0.87640892  0.62373406    -0.23500
C3397       C  0.76323274  0.85399566  0.62244748     0.19500
C3398       C  0.73919052  0.85044559  0.62312713     0.24600
C3399       C  0.72346023  0.86918717  0.62538194    -0.23400
C3400       C  0.73252106  0.89167621  0.62669765     0.19500
F3401       F  0.71814153  0.91007719  0.62969242    -0.13400
F3402       F  0.76483903  0.91728824  0.62609544    -0.15700
F3403       F  0.73118374  0.82846498  0.62104315    -0.15700
F3404       F  0.77753524  0.83559150  0.61909554    -0.13400
C3405       C  0.99153512  0.87019823  0.60862071     0.24600
C3406       C  0.97468074  0.88180679  0.62248912    -0.23500
C3407       C  0.98286795  0.89668351  0.63981383     0.19500
C3408       C  0.00686309  0.90027492  0.64280049     0.24600
C3409       C  0.02363781  0.88917775  0.62842361    -0.23400
C3410       C  0.01545766  0.87401305  0.61141702     0.19500
F3411       F  0.03053555  0.86324506  0.59692738    -0.13400
F3412       F  0.98504775  0.85501982  0.59194254    -0.15700
F3413       F  0.01354878  0.91486039  0.65994744    -0.15700
F3414       F  0.96773440  0.90800232  0.65382733    -0.13400
C3415       C  0.86032439  0.99602186  0.62637139     0.24600
C3416       C  0.87819230  0.97916554  0.62542522    -0.23500
C3417       C  0.90114773  0.98688650  0.62487956     0.19500
C3418       C  0.90616886  0.01071535  0.62551748     0.24600
C3419       C  0.88836947  0.02763712  0.62719260    -0.23400
C3420       C  0.86533148  0.01992908  0.62738648     0.19500
F3421       F  0.84767436  0.03542222  0.62894697    -0.13400
F3422       F  0.83782730  0.98925271  0.62594336    -0.15700
F3423       F  0.92865945  0.01727394  0.62368448    -0.15700
F3424       F  0.91871998  0.97144216  0.62218944    -0.13400
C3425       C  0.85873064  0.13026611  0.27520341     0.24600
C3426       C  0.87653878  0.11533203  0.28206455    -0.23500
C3427       C  0.89131067  0.10615714  0.26456722     0.19500
C3428       C  0.88695017  0.11013671  0.24087685     0.24600
C3429       C  0.86813739  0.12388102  0.23396622    -0.23400
C3430       C  0.85462599  0.13460677  0.25162984     0.19500
F3431       F  0.83686154  0.14911190  0.24632019    -0.13400
F3432       F  0.84455077  0.13998830  0.29127506    -0.15700
F3433       F  0.90106130  0.10032028  0.22481536    -0.15700
F3434       F  0.91026296  0.09340163  0.27019540    -0.13400
C3435       C  0.76438597  0.13745460  0.37510790     0.24600
C3436       C  0.77331167  0.11493238  0.37724875    -0.23500
C3437       C  0.75735603  0.09635972  0.37931660     0.19500
C3438       C  0.73329912  0.10018912  0.37948423     0.24600
C3439       C  0.72438087  0.12264675  0.37726396    -0.23400
C3440       C  0.74024850  0.14125185  0.37504608     0.19500
F3441       F  0.73228413  0.16330098  0.37270684    -0.13400
F3442       F  0.77893085  0.15583685  0.37367313    -0.15700
F3443       F  0.71876095  0.08176710  0.38044539    -0.15700
F3444       F  0.76505249  0.07415582  0.38055959    -0.13400
C3445       C  0.99211300  0.11396800  0.36438618     0.24600
C3446       C  0.97495657  0.12184803  0.38021718    -0.23500
C3447       C  0.98220215  0.13498741  0.39917323     0.19500
C3448       C  0.00592842  0.13849206  0.40333188     0.24600
C3449       C  0.02327562  0.12873213  0.38866569    -0.23400
C3450       C  0.01588252  0.11710536  0.36871132     0.19500
F3451       F  0.03155473  0.10841457  0.35347718    -0.13400
F3452       F  0.98595452  0.10292282  0.34459630    -0.15700
F3453       F  0.01172861  0.15098227  0.42234869    -0.15700
F3454       F  0.96641679  0.14337970  0.41448392    -0.13400
C3455       C  0.90150695  0.13072221  0.49147435     0.24600
C3456       C  0.88032807  0.12202001  0.48360804    -0.23500
C3457       C  0.86365186  0.11534863  0.50045815     0.19500
C3458       C  0.86819521  0.11686661  0.52434052     0.24600
C3459       C  0.88943447  0.12536266  0.53230772    -0.23400
C3460       C  0.90601924  0.13240513  0.51543011     0.19500
F3461       F  0.92706666  0.14041877  0.52197740    -0.13400
F3462       F  0.91830653  0.13657360  0.47606883    -0.15700
F3463       F  0.85159940  0.11016632  0.53959782    -0.15700
F3464       F  0.84268095  0.10711104  0.49383375    -0.13400
C3465       C  0.90419338  0.99610407  0.48423356     0.24600
C3466       C  0.88570560  0.01195240  0.48440991    -0.23500
C3467       C  0.86992105  0.01177450  0.50293840     0.19500
C3468       C  0.87054831  0.99369042  0.51898845     0.24600
C3469       C  0.88671778  0.97559890  0.51628601    -0.23400
C3470       C  0.90471756  0.97799148  0.50011346     0.19500
F3471       F  0.92189378  0.96198140  0.49852479    -0.13400
F3472       F  0.92057627  0.99690419  0.46734059    -0.15700
F3473       F  0.85378328  0.99266602  0.53548683    -0.15700
F3474       F  0.85227916  0.02730895  0.50407335    -0.13400
C3475       C  0.09408921  0.87624242  0.26590114     0.24600
C3476       C  0.11293082  0.87542072  0.28167573    -0.23500
C3477       C  0.13533063  0.87335665  0.27245767     0.19500
C3478       C  0.13875058  0.87214812  0.24825995     0.24600
C3479       C  0.11988910  0.87295364  0.23256282    -0.23400
C3480       C  0.09753036  0.87503182  0.24176032     0.19500
F3481       F  0.07886244  0.87428087  0.22750111    -0.13400
F3482       F  0.07201292  0.87728944  0.27389680    -0.15700
F3483       F  0.16067170  0.86967507  0.24006769    -0.15700
F3484       F  0.15395538  0.87286764  0.28677015    -0.13400
C3485       C  0.12051217  0.74962143  0.35533393     0.24600
C3486       C  0.12216401  0.73312838  0.37364692    -0.23500
C3487       C  0.12167306  0.74143795  0.39650659     0.19500
C3488       C  0.11928353  0.76542934  0.40082229     0.24600
C3489       C  0.11819906  0.78166820  0.38238108    -0.23400
C3490       C  0.11914172  0.77344167  0.35968881     0.19500
F3491       F  0.11708595  0.78841254  0.34158932    -0.13400
F3492       F  0.11937114  0.74276651  0.33287135    -0.15700
F3493       F  0.11790773  0.77286620  0.42309499    -0.15700
F3494       F  0.12390671  0.72649852  0.41458644    -0.13400
C3495       C  0.13897216  0.99125276  0.38909151     0.24600
C3496       C  0.11686452  0.98168741  0.39191623    -0.23500
C3497       C  0.09789496  0.99691674  0.39518837     0.19500
C3498       C  0.10077954  0.02106295  0.39477465     0.24600
C3499       C  0.12274369  0.03068606  0.39125381    -0.23400
C3500       C  0.14188415  0.01548272  0.38892410     0.19500
F3501       F  0.16360655  0.02422974  0.38697983    -0.13400
F3502       F  0.15762320  0.97725120  0.38591027    -0.15700
F3503       F  0.08232594  0.03499245  0.39924726    -0.15700
F3504       F  0.07642178  0.98829979  0.39926830    -0.13400
C3505       C  0.97345163  0.99290284  0.41761954     0.24600
C3506       C  0.97060430  0.01025652  0.40077169    -0.23500
C3507       C  0.98855381  0.01427182  0.38467559     0.19500
C3508       C  0.00654789  0.99826284  0.38245878     0.24600
C3509       C  0.00709494  0.97866338  0.39691091    -0.23400
C3510       C  0.99169035  0.97724971  0.41572396     0.19500
F3511       F  0.99316176  0.95953992  0.43118699    -0.13400
F3512       F  0.95788684  0.99006013  0.43502169    -0.15700
F3513       F  0.02170955  0.00072722  0.36464028    -0.15700
F3514       F  0.98757890  0.03230842  0.36952505    -0.13400
C3515       C  0.14305181  0.88479248  0.51658560     0.24600
C3516       C  0.12471136  0.88780966  0.53260684    -0.23500
C3517       C  0.10219721  0.89020433  0.52409025     0.19500
C3518       C  0.09796950  0.88954444  0.50020203     0.24600
C3519       C  0.11611534  0.88580388  0.48402872    -0.23400
C3520       C  0.13876148  0.88341401  0.49254494     0.19500
F3521       F  0.15656632  0.87911027  0.47777354    -0.13400
F3522       F  0.16521036  0.88328818  0.52429914    -0.15700
F3523       F  0.07589215  0.89301615  0.49285872    -0.15700
F3524       F  0.08438580  0.89460983  0.53884181    -0.13400
C3525       C  0.00426380  0.87318642  0.49464177     0.24600
C3526       C  0.00338435  0.89111721  0.47808768    -0.23500
C3527       C  0.98688202  0.90887230  0.48058511     0.19500
C3528       C  0.96956283  0.90700368  0.49723698     0.24600
C3529       C  0.96869014  0.88755831  0.51182979    -0.23400
C3530       C  0.98691549  0.87134479  0.51139577     0.19500
F3531       F  0.98688447  0.85251904  0.52554813    -0.13400
F3532       F  0.02060172  0.85626228  0.49340839    -0.15700
F3533       F  0.95291478  0.92362807  0.49828631    -0.15700
F3534       F  0.98674801  0.92750208  0.46620305    -0.13400
C3535       C  0.76065345  0.84856618  0.47987708     0.24600
C3536       C  0.74414669  0.86638856  0.47790080    -0.23500
C3537       C  0.74388579  0.88422121  0.49451016     0.19500
C3538       C  0.76203728  0.88618293  0.51036633     0.24600
C3539       C  0.78041017  0.87018669  0.50991424    -0.23400
C3540       C  0.77867966  0.85046389  0.49579360     0.19500
F3541       F  0.79491017  0.83343774  0.49674508    -0.13400
F3542       F  0.75999154  0.82983567  0.46570103    -0.15700
F3543       F  0.76264350  0.90485929  0.52460781    -0.15700
F3544       F  0.72729391  0.90093230  0.49414040    -0.13400
C3545       C  0.62462200  0.84398638  0.51647294     0.24600
C3546       C  0.62474236  0.86142359  0.53383597    -0.23500
C3547       C  0.62650587  0.88460993  0.52666328     0.19500
C3548       C  0.62805390  0.89018060  0.50291310     0.24600
C3549       C  0.62757015  0.87273418  0.48572362    -0.23400
C3550       C  0.62567185  0.84963869  0.49281552     0.19500
F3551       F  0.62660379  0.83235591  0.47690539    -0.13400
F3552       F  0.62471069  0.82116908  0.52224419    -0.15700
F3553       F  0.63044857  0.91274907  0.49665178    -0.15700
F3554       F  0.62664614  0.90189244  0.54257232    -0.13400
C3555       C  0.62744584  0.76110655  0.37259352     0.24600
C3556       C  0.62626392  0.77778826  0.39054067    -0.23500
C3557       C  0.62407889  0.76988650  0.41338262     0.19500
C3558       C  0.62360947  0.74601613  0.41830827     0.24600
C3559       C  0.62447850  0.72914963  0.40040316    -0.23400
C3560       C  0.62625128  0.73712588  0.37742960     0.19500
F3561       F  0.62639829  0.72180560  0.35961963    -0.13400
F3562       F  0.62976716  0.76809192  0.35020992    -0.15700
F3563       F  0.62324007  0.73952808  0.44093818    -0.15700
F3564       F  0.62387278  0.78524726  0.43116777    -0.13400
C3565       C  0.62478774  0.99428988  0.39980329     0.24600
C3566       C  0.62951597  0.97805803  0.38208963    -0.23500
C3567       C  0.63393071  0.98633479  0.35969148     0.19500
C3568       C  0.63359773  0.01020357  0.35499984     0.24600
C3569       C  0.62853276  0.02656511  0.37257172    -0.23400
C3570       C  0.62400207  0.01828547  0.39503564     0.19500
F3571       F  0.61814609  0.03329390  0.41215583    -0.13400
F3572       F  0.62108737  0.98683979  0.42184191    -0.15700
F3573       F  0.63871137  0.01736731  0.33313678    -0.15700
F3574       F  0.63986890  0.97133700  0.34256850    -0.13400
C3575       C  0.74732170  0.98394207  0.39904254     0.24600
C3576       C  0.74764506  0.96774438  0.38084851    -0.23500
C3577       C  0.76399921  0.97020137  0.36293482     0.19500
C3578       C  0.78116466  0.98705402  0.36441781     0.24600
C3579       C  0.78206622  0.00185506  0.38364092    -0.23400
C3580       C  0.76445070  0.00089978  0.40042680     0.19500
F3581       F  0.76488202  0.01496203  0.41924233    -0.13400
F3582       F  0.73161699  0.98229925  0.41650397    -0.15700
F3583       F  0.79734119  0.98849222  0.34738116    -0.15700
F3584       F  0.76384065  0.95587529  0.34430590    -0.13400
C3585       C  0.63899947  0.87127186  0.26737466     0.24600
C3586       C  0.62677485  0.88367199  0.28487043    -0.23500
C3587       C  0.60967274  0.89936425  0.27772372     0.19500
C3588       C  0.60561301  0.90334067  0.25399827     0.24600
C3589       C  0.61917435  0.89233758  0.23653343    -0.23400
C3590       C  0.63537309  0.87571323  0.24367710     0.19500
F3591       F  0.64827666  0.86413003  0.22776791    -0.13400
F3592       F  0.65490398  0.85483915  0.27301791    -0.15700
F3593       F  0.58796994  0.91784856  0.24841966    -0.15700
F3594       F  0.59697030  0.91118347  0.29360531    -0.13400
C3595       C  0.75769482  0.63751104  0.36857287     0.24600
C3596       C  0.77442475  0.63529860  0.38642880    -0.23500
C3597       C  0.76663267  0.63158323  0.40910389     0.19500
C3598       C  0.74277493  0.63122484  0.41398333     0.24600
C3599       C  0.72599837  0.63423629  0.39622299    -0.23400
C3600       C  0.73382995  0.63712938  0.37342544     0.19500
F3601       F  0.71846191  0.63926517  0.35576596    -0.13400
F3602       F  0.76453915  0.64056452  0.34624264    -0.15700
F3603       F  0.73613008  0.62879377  0.43642524    -0.15700
F3604       F  0.78204153  0.62978532  0.42677944    -0.13400
C3605       C  0.77401126  0.76364278  0.40766264     0.24600
C3606       C  0.77674682  0.74884768  0.38856108    -0.23500
C3607       C  0.75934873  0.74800080  0.37156684     0.19500
C3608       C  0.74122359  0.76407507  0.37197292     0.24600
C3609       C  0.74033277  0.78095878  0.38949744    -0.23400
C3610       C  0.75596714  0.77968324  0.40806504     0.19500
F3611       F  0.75463299  0.79497291  0.42588335    -0.13400
F3612       F  0.78949279  0.76342899  0.42535897    -0.15700
F3613       F  0.72615551  0.76456101  0.35394483    -0.15700
F3614       F  0.76106386  0.73326220  0.35333384    -0.13400
C3615       C  0.87246627  0.75047622  0.49299076     0.24600
C3616       C  0.86154680  0.75522517  0.47167046    -0.23500
C3617       C  0.84821969  0.77550453  0.46940174     0.19500
C3618       C  0.84864184  0.79218972  0.48671640     0.24600
C3619       C  0.86238459  0.78886629  0.50658887    -0.23400
C3620       C  0.87295258  0.76721887  0.51028374     0.19500
F3621       F  0.88517044  0.76256690  0.52980485    -0.13400
F3622       F  0.88397167  0.73034689  0.49689552    -0.15700
F3623       F  0.83671723  0.81220692  0.48325646    -0.15700
F3624       F  0.83586044  0.77993032  0.44985115    -0.13400
C3625       C  0.85898467  0.62361367  0.49198920     0.24600
C3626       C  0.87305150  0.64167735  0.48394748    -0.23500
C3627       C  0.88488225  0.65519074  0.50081860     0.19500
C3628       C  0.88207981  0.65113241  0.52479455     0.24600
C3629       C  0.86749388  0.63343174  0.53277556    -0.23400
C3630       C  0.85630071  0.61948842  0.51589067     0.19500
F3631       F  0.84234587  0.60171964  0.52239266    -0.13400
F3632       F  0.84730033  0.61010927  0.47679250    -0.15700
F3633       F  0.89309407  0.66508134  0.54011579    -0.15700
F3634       F  0.89910997  0.67272714  0.49427680    -0.13400
C3635       C  0.99269506  0.65701022  0.39213905     0.24600
C3636       C  0.97624326  0.64184953  0.38174668    -0.23500
C3637       C  0.98478021  0.62236456  0.37007863     0.19500
C3638       C  0.00877483  0.61862403  0.36797906     0.24600
C3639       C  0.02516505  0.63437814  0.37736299    -0.23400
C3640       C  0.01671403  0.65331842  0.38989631     0.19500
F3641       F  0.03160983  0.66892621  0.39911531    -0.13400
F3642       F  0.98573381  0.67593825  0.40422967    -0.15700
F3643       F  0.01591573  0.59949189  0.35629380    -0.15700
F3644       F  0.97000025  0.60702590  0.36027860    -0.13400
C3645       C  0.97976665  0.75924845  0.39359971     0.24600
C3646       C  0.96412482  0.75804392  0.37493315    -0.23500
C3647       C  0.96639663  0.77354970  0.35630073     0.19500
C3648       C  0.98319837  0.79082783  0.35692195     0.24600
C3649       C  0.99771624  0.79301981  0.37631053    -0.23400
C3650       C  0.99647354  0.77659280  0.39423858     0.19500
F3651       F  0.01013544  0.77835486  0.41329171    -0.13400
F3652       F  0.97778296  0.74498094  0.41223142    -0.15700
F3653       F  0.98496250  0.80570743  0.33877060    -0.15700
F3654       F  0.95196350  0.77234863  0.33777782    -0.13400
C3655       C  0.85862009  0.63671287  0.26558308     0.24600
C3656       C  0.87648128  0.63421204  0.28228677    -0.23500
C3657       C  0.89894451  0.62982289  0.27442364     0.19500
C3658       C  0.90364612  0.62895870  0.25053895     0.24600
C3659       C  0.88596545  0.63243752  0.23370328    -0.23400
C3660       C  0.86332679  0.63595213  0.24165041     0.19500
F3661       F  0.84568034  0.63840924  0.22632878    -0.13400
F3662       F  0.83644820  0.64047262  0.27249323    -0.15700
F3663       F  0.92593512  0.62567116  0.24403769    -0.15700
F3664       F  0.91668177  0.62800684  0.28976558    -0.13400
C3665       C  0.86087949  0.98679442  0.12497466     0.24600
C3666       C  0.86452367  0.97896396  0.14770229    -0.23500
C3667       C  0.86768592  0.99580682  0.16532822     0.19500
C3668       C  0.86702990  0.01969030  0.16032902     0.24600
C3669       C  0.86314634  0.02745229  0.13764254    -0.23400
C3670       C  0.86026962  0.01067086  0.12000662     0.19500
F3671       F  0.85637552  0.01746852  0.09779136    -0.13400
F3672       F  0.85813356  0.97140227  0.10746169    -0.15700
F3673       F  0.86862926  0.03517432  0.17793274    -0.15700
F3674       F  0.87053103  0.98922970  0.18775259    -0.13400
C3675       C  0.98782395  0.88893929  0.15511164     0.24600
C3676       C  0.97110864  0.87632344  0.14211611    -0.23500
C3677       C  0.97926879  0.86138795  0.12484120     0.19500
C3678       C  0.00321255  0.85872388  0.12098975     0.24600
C3679       C  0.01992630  0.87077908  0.13453288    -0.23400
C3680       C  0.01174380  0.88608701  0.15142928     0.19500
F3681       F  0.02683393  0.89795373  0.16490217    -0.13400
F3682       F  0.98120282  0.90412052  0.17180095    -0.15700
F3683       F  0.00988421  0.84397416  0.10392634    -0.15700
F3684       F  0.96418077  0.84889392  0.11193401    -0.13400
C3685       C  0.84831526  0.96328002  0.28137120     0.24600
C3686       C  0.86335981  0.96575746  0.26241688    -0.23500
C3687       C  0.87622338  0.98633308  0.26002529     0.19500
C3688       C  0.87648431  0.00247123  0.27796825     0.24600
C3689       C  0.86383975  0.99825532  0.29839508    -0.23400
C3690       C  0.84839740  0.97947161  0.29911470     0.19500
F3691       F  0.83392237  0.97606414  0.31730737    -0.13400
F3692       F  0.83431001  0.94451319  0.28339754    -0.15700
F3693       F  0.89033928  0.02134467  0.27588522    -0.15700
F3694       F  0.88987940  0.99027216  0.24129456    -0.13400
C3695       C  0.98416255  0.88861657  0.25482029     0.24600
C3696       C  0.96647373  0.87196137  0.25719195    -0.23500
C3697       C  0.96730881  0.85633167  0.27589953     0.19500
C3698       C  0.98416533  0.85867381  0.29296361     0.24600
C3699       C  0.00049424  0.87663346  0.29163448    -0.23400
C3700       C  0.00097784  0.89095681  0.27195628     0.19500
F3701       F  0.01637390  0.90858380  0.27010787    -0.13400
F3702       F  0.98438257  0.90399770  0.23702348    -0.15700
F3703       F  0.98387372  0.84396051  0.31134842    -0.15700
F3704       F  0.95115714  0.83941883  0.27829086    -0.13400
C3705       C  0.90451888  0.77667818  0.26502457     0.24600
C3706       C  0.88600039  0.77854730  0.24938049    -0.23500
C3707       C  0.86991683  0.76033381  0.24790248     0.19500
C3708       C  0.86960984  0.74318224  0.26506012     0.24600
C3709       C  0.88533056  0.74443538  0.28358472    -0.23400
C3710       C  0.90423855  0.75956797  0.28200337     0.19500
F3711       F  0.92138916  0.75911547  0.29807406    -0.13400
F3712       F  0.92185404  0.79251929  0.26517894    -0.15700
F3713       F  0.85245385  0.72714523  0.26492932    -0.15700
F3714       F  0.85298074  0.76051986  0.23160130    -0.13400
C3715       C  0.85842156  0.76368071  0.12713010     0.24600
C3716       C  0.87545902  0.77941106  0.13485485    -0.23500
C3717       C  0.89723038  0.77062943  0.14100161     0.19500
C3718       C  0.90177153  0.74673808  0.14011881     0.24600
C3719       C  0.88461360  0.73076716  0.13308659    -0.23400
C3720       C  0.86306063  0.73963748  0.12591963     0.19500
F3721       F  0.84680435  0.72519786  0.11710790    -0.13400
F3722       F  0.83711685  0.77163306  0.12106923    -0.15700
F3723       F  0.92309556  0.73912677  0.14655228    -0.15700
F3724       F  0.91376454  0.78512657  0.14920797    -0.13400
C3725       C  0.76159347  0.86413696  0.25842644     0.24600
C3726       C  0.77862837  0.88146093  0.25845493    -0.23500
C3727       C  0.77586379  0.90085830  0.27289605     0.19500
C3728       C  0.75787664  0.90152469  0.28905119     0.24600
C3729       C  0.74237468  0.88291743  0.29078722    -0.23400
C3730       C  0.74357275  0.86482812  0.27453284     0.19500
F3731       F  0.72880271  0.84660709  0.27561390    -0.13400
F3732       F  0.76351323  0.84540641  0.24435323    -0.15700
F3733       F  0.75620639  0.91983262  0.30371706    -0.15700
F3734       F  0.79103366  0.91876581  0.27195890    -0.13400
C3735       C  0.76061613  0.90330304  0.14461653     0.24600
C3736       C  0.76931899  0.88065286  0.14548009    -0.23500
C3737       C  0.75338921  0.86203130  0.14552213     0.19500
C3738       C  0.72935154  0.86598807  0.14463766     0.24600
C3739       C  0.72065572  0.88865931  0.14382754    -0.23400
C3740       C  0.73661564  0.90726992  0.14384811     0.19500
F3741       F  0.72890531  0.92951890  0.14366752    -0.13400
F3742       F  0.77525258  0.92162460  0.14588559    -0.15700
F3743       F  0.71468414  0.84767270  0.14383779    -0.15700
F3744       F  0.76119106  0.83983252  0.14660717    -0.13400
C3745       C  0.76652733  0.63679399  0.87618456     0.24600
C3746       C  0.77421651  0.61383967  0.87834934    -0.23500
C3747       C  0.75736223  0.59604364  0.87994555     0.19500
C3748       C  0.73354355  0.60112281  0.87885198     0.24600
C3749       C  0.72596564  0.62406363  0.87623336    -0.23400
C3750       C  0.74274225  0.64183851  0.87519460     0.19500
F3751       F  0.73603716  0.66429731  0.87288986    -0.13400
F3752       F  0.78197454  0.65444922  0.87542569    -0.15700
F3753       F  0.71800787  0.58349864  0.87886026    -0.15700
F3754       F  0.76390661  0.57349416  0.88170931    -0.13400
C3755       C  0.85749508  0.60232723  0.76887994     0.24600
C3756       C  0.86832690  0.61897232  0.78299927    -0.23500
C3757       C  0.87873248  0.63822388  0.77227865     0.19500
C3758       C  0.87775308  0.64098973  0.74799738     0.24600
C3759       C  0.86709601  0.62414251  0.73392837    -0.23400
C3760       C  0.85681011  0.60492631  0.74470896     0.19500
F3761       F  0.84534227  0.58901368  0.73182200    -0.13400
F3762       F  0.84786606  0.58317221  0.77860988    -0.15700
F3763       F  0.88694405  0.66030839  0.73819002    -0.15700
F3764       F  0.89057598  0.65384013  0.78518954    -0.13400
C3765       C  0.99021988  0.62929222  0.86688918     0.24600
C3766       C  0.97470448  0.62341435  0.88499166    -0.23500
C3767       C  0.98402895  0.61611311  0.90618575     0.19500
C3768       C  0.00807946  0.61534875  0.90951579     0.24600
C3769       C  0.02370836  0.62201568  0.89177416    -0.23400
C3770       C  0.01444439  0.62895470  0.87033550     0.19500
F3771       F  0.02871030  0.63595562  0.85297668    -0.13400
F3772       F  0.98182285  0.63478970  0.84558615    -0.15700
F3773       F  0.01620393  0.60794177  0.93035651    -0.15700
F3774       F  0.96983573  0.60825359  0.92325527    -0.13400
C3775       C  0.88869239  0.63955542  0.99039276     0.24600
C3776       C  0.87687003  0.61960330  0.98346205    -0.23500
C3777       C  0.86733186  0.60514140  0.00108755     0.19500
C3778       C  0.87106367  0.60965519  0.02473027     0.24600
C3779       C  0.88406193  0.62886002  0.03154737    -0.23400
C3780       C  0.89189405  0.64434381  0.01402168     0.19500
F3781       F  0.90279050  0.66436508  0.01959872    -0.13400
F3782       F  0.89747397  0.65441384  0.97439349    -0.15700
F3783       F  0.86288454  0.59457094  0.04086215    -0.15700
F3784       F  0.85475601  0.58609416  0.99563797    -0.13400
C3785       C  0.84805785  0.26977741  0.13006823     0.24600
C3786       C  0.87058245  0.27820416  0.12732000    -0.23500
C3787       C  0.88883095  0.26189433  0.12462551     0.19500
C3788       C  0.88464937  0.23783406  0.12497782     0.24600
C3789       C  0.86209515  0.22939081  0.12788749    -0.23400
C3790       C  0.84384551  0.24578569  0.13015537     0.19500
F3791       F  0.82156970  0.23862327  0.13181314    -0.13400
F3792       F  0.82991166  0.28472246  0.13141749    -0.15700
F3793       F  0.90273800  0.22288885  0.12309178    -0.15700
F3794       F  0.91093879  0.26930905  0.12167688    -0.13400
C3795       C  0.75755803  0.37052121  0.10273530     0.24600
C3796       C  0.77401249  0.37307245  0.12078518    -0.23500
C3797       C  0.76584206  0.37492190  0.14360799     0.19500
C3798       C  0.74186920  0.37476735  0.14816011     0.24600
C3799       C  0.72550279  0.37313685  0.13000192    -0.23400
C3800       C  0.73368637  0.37079522  0.10728051     0.19500
F3801       F  0.71862192  0.36703216  0.08963742    -0.13400
F3802       F  0.76458434  0.36688660  0.08055353    -0.15700
F3803       F  0.73453086  0.37546742  0.17052245    -0.15700
F3804       F  0.78096027  0.37710576  0.16145324    -0.13400
C3805       C  0.89890119  0.51109613  0.14066153     0.24600
C3806       C  0.88401106  0.52855197  0.13140598    -0.23500
C3807       C  0.86339045  0.52129982  0.12091172     0.19500
C3808       C  0.85845390  0.49753386  0.11853018     0.24600
C3809       C  0.87417867  0.48018885  0.12623708    -0.23400
C3810       C  0.89406146  0.48735670  0.13800783     0.19500
F3811       F  0.90952609  0.47143170  0.14590326    -0.13400
F3812       F  0.91870683  0.51678443  0.15189565    -0.15700
F3813       F  0.83809973  0.49154293  0.10849200    -0.15700
F3814       F  0.84796666  0.53711585  0.11277853    -0.13400
C3815       C  0.87027869  0.48701125  0.01185107     0.24600
C3816       C  0.88779197  0.47005902  0.01133408    -0.23500
C3817       C  0.90635036  0.47252425  0.99575847     0.19500
C3818       C  0.90589807  0.48997999  0.97905879     0.24600
C3819       C  0.88699415  0.50525753  0.97784175    -0.23400
C3820       C  0.86982735  0.50447489  0.99515901     0.19500
F3821       F  0.85136709  0.51906148  0.99479620    -0.13400
F3822       F  0.85241131  0.48559164  0.02712099    -0.15700
F3823       F  0.92337668  0.49122980  0.96334132    -0.15700
F3824       F  0.92446618  0.45750979  0.99600498    -0.13400
C3825       C  0.99018065  0.37062240  0.13474259     0.24600
C3826       C  0.97431543  0.38917497  0.13216668    -0.23500
C3827       C  0.98317493  0.41159198  0.12942010     0.19500
C3828       C  0.00725862  0.41533675  0.12925857     0.24600
C3829       C  0.02324780  0.39673500  0.13201931    -0.23400
C3830       C  0.01429223  0.37433948  0.13477066     0.19500
F3831       F  0.02880441  0.35609403  0.13801447    -0.13400
F3832       F  0.98218083  0.34861967  0.13688428    -0.15700
F3833       F  0.01493724  0.43728942  0.12567554    -0.15700
F3834       F  0.96861689  0.42969831  0.12543885    -0.13400
C3835       C  0.09340722  0.38163207  0.76653804     0.24600
C3836       C  0.10967885  0.37419142  0.78356552    -0.23500
C3837       C  0.13078455  0.36505266  0.77562336     0.19500
C3838       C  0.13537052  0.36307918  0.75169259     0.24600
C3839       C  0.11909689  0.37037927  0.73472752    -0.23400
C3840       C  0.09808137  0.37976930  0.74257093     0.19500
F3841       F  0.08155430  0.38621866  0.72711151    -0.13400
F3842       F  0.07252970  0.39038878  0.77294916    -0.15700
F3843       F  0.15603978  0.35392378  0.74513414    -0.15700
F3844       F  0.14724540  0.35821167  0.79095437    -0.13400
C3845       C  0.11680263  0.27158115  0.86490396     0.24600
C3846       C  0.11331617  0.27949100  0.88745132    -0.23500
C3847       C  0.11162271  0.26291560  0.90557738     0.19500
C3848       C  0.11300391  0.23889561  0.90101001     0.24600
C3849       C  0.11574437  0.23093872  0.87817219    -0.23400
C3850       C  0.11751230  0.24779448  0.86025861     0.19500
F3851       F  0.11894949  0.24137436  0.83775828    -0.13400
F3852       F  0.11791207  0.28688525  0.84700766    -0.15700
F3853       F  0.11194100  0.22358352  0.91887976    -0.15700
F3854       F  0.10859288  0.27003382  0.92779879    -0.13400
C3855       C  0.14165778  0.48845605  0.89300431     0.24600
C3856       C  0.12194234  0.48032801  0.88145086    -0.23500
C3857       C  0.10723733  0.49708615  0.87069004     0.19500
C3858       C  0.11090799  0.52090457  0.87321842     0.24600
C3859       C  0.12946246  0.52900842  0.88626682    -0.23400
C3860       C  0.14543446  0.51249614  0.89533066     0.19500
F3861       F  0.16459421  0.51959124  0.90691883    -0.13400
F3862       F  0.15704784  0.47329973  0.90239151    -0.15700
F3863       F  0.09538608  0.53597985  0.86393018    -0.15700
F3864       F  0.08855609  0.49070349  0.85802962    -0.13400
C3865       C  0.97799956  0.50117971  0.91573912     0.24600
C3866       C  0.97516602  0.51510458  0.89595913    -0.23500
C3867       C  0.99258817  0.51544158  0.87896631     0.19500
C3868       C  0.01029678  0.49896240  0.87967246     0.24600
C3869       C  0.01055069  0.48210503  0.89740651    -0.23400
C3870       C  0.99544916  0.48451486  0.91633331     0.19500
F3871       F  0.99638947  0.46952018  0.93450404    -0.13400
F3872       F  0.96280772  0.50247662  0.93366916    -0.15700
F3873       F  0.02533186  0.49801006  0.86160958    -0.15700
F3874       F  0.99108105  0.52979461  0.86032128    -0.13400
C3875       C  0.10949998  0.40358851  0.99667770     0.24600
C3876       C  0.12110220  0.38556176  0.98506214    -0.23500
C3877       C  0.13150014  0.36796295  0.99855749     0.19500
C3878       C  0.13057909  0.36857654  0.02298819     0.24600
C3879       C  0.11872863  0.38650660  0.03448095    -0.23400
C3880       C  0.10855282  0.40418190  0.02099233     0.19500
F3881       F  0.09786044  0.42232841  0.03152020    -0.13400
F3882       F  0.09786726  0.41998507  0.98436875    -0.15700
F3883       F  0.14174414  0.35196564  0.03542483    -0.15700
F3884       F  0.14171836  0.34959620  0.98797829    -0.13400
C3885       C  0.99308185  0.41225307  0.99083652     0.24600
C3886       C  0.00896772  0.39417521  0.98705061    -0.23500
C3887       C  0.01008216  0.37564664  0.00297512     0.19500
C3888       C  0.99330288  0.37354318  0.02023784     0.24600
C3889       C  0.97543788  0.38999641  0.02174260    -0.23400
C3890       C  0.97628146  0.41006474  0.00801503     0.19500
F3891       F  0.95984617  0.42678676  0.01020515    -0.13400
F3892       F  0.99282416  0.43131318  0.97698261    -0.15700
F3893       F  0.99305353  0.35408658  0.03352557    -0.15700
F3894       F  0.02577156  0.35826484  0.00042859    -0.13400
C3895       C  0.64003892  0.36773195  0.76729621     0.24600
C3896       C  0.63475390  0.38486589  0.78412641    -0.23500
C3897       C  0.62782646  0.40680700  0.77632539     0.19500
C3898       C  0.62644521  0.41160236  0.75243701     0.24600
C3899       C  0.63194209  0.39455743  0.73559198    -0.23400
C3900       C  0.63878554  0.37256181  0.74342029     0.19500
F3901       F  0.64380721  0.35549686  0.72805432    -0.13400
F3902       F  0.64640842  0.34603052  0.77393775    -0.15700
F3903       F  0.62017648  0.43330404  0.74583249    -0.15700
F3904       F  0.62334570  0.42396861  0.79174491    -0.13400
C3905       C  0.77327022  0.46459845  0.85476556     0.24600
C3906       C  0.75561388  0.46302015  0.87144653    -0.23500
C3907       C  0.75297719  0.48088984  0.88782377     0.19500
C3908       C  0.76923407  0.49850709  0.88919533     0.24600
C3909       C  0.78834446  0.49863224  0.87415996    -0.23400
C3910       C  0.78964258  0.48223148  0.85622948     0.19500
F3911       F  0.80733108  0.48265845  0.84073778    -0.13400
F3912       F  0.77521428  0.44874246  0.83754891    -0.15700
F3913       F  0.76723654  0.51403915  0.90669403    -0.15700
F3914       F  0.73578624  0.48044254  0.90390552    -0.13400
C3915       C  0.63262395  0.48766612  0.86152544     0.24600
C3916       C  0.64108995  0.47982526  0.88285102    -0.23500
C3917       C  0.64622601  0.49651646  0.90009253     0.19500
C3918       C  0.64308035  0.52042099  0.89595792     0.24600
C3919       C  0.63498297  0.52832014  0.87437901    -0.23400
C3920       C  0.62979790  0.51147162  0.85724131     0.19500
F3921       F  0.62257786  0.51794015  0.83579324    -0.13400
F3922       F  0.62836478  0.47235564  0.84423478    -0.15700
F3923       F  0.64780152  0.53570001  0.91314769    -0.15700
F3924       F  0.65430751  0.48968844  0.92113332    -0.13400
C3925       C  0.61943302  0.36714871  0.99302923     0.24600
C3926       C  0.63599326  0.38324800  0.98573435    -0.23500
C3927       C  0.64641431  0.39745067  0.00292205     0.19500
C3928       C  0.64245053  0.39370021  0.02671126     0.24600
C3929       C  0.62740490  0.37619417  0.03409519    -0.23400
C3930       C  0.61500827  0.36379385  0.01678264     0.19500
F3931       F  0.59883888  0.34778816  0.02269449    -0.13400
F3932       F  0.60824065  0.35382634  0.97727356    -0.15700
F3933       F  0.65389674  0.40683089  0.04242093    -0.15700
F3934       F  0.66062433  0.41515069  0.99689954    -0.13400
C3935       C  0.75561820  0.38444018  0.98949420     0.24600
C3936       C  0.75397891  0.36544357  0.97438808    -0.23500
C3937       C  0.76814592  0.34594182  0.97806905     0.19500
C3938       C  0.78540716  0.34647596  0.99496803     0.24600
C3939       C  0.78868743  0.36650928  0.00828439    -0.23400
C3940       C  0.77286142  0.38496255  0.00633499     0.19500
F3941       F  0.77520182  0.40439316  0.01934054    -0.13400
F3942       F  0.74188637  0.40339548  0.98678212    -0.15700
F3943       F  0.79919385  0.32764103  0.99797934    -0.15700
F3944       F  0.76572129  0.32664471  0.96489697    -0.13400
C3945       C  0.62318150  0.27014457  0.91184819     0.24600
C3946       C  0.62799520  0.27897798  0.88977256    -0.23500
C3947       C  0.63135900  0.26298454  0.87138755     0.19500
C3948       C  0.63028249  0.23887972  0.87508441     0.24600
C3949       C  0.62572979  0.22999603  0.89724560    -0.23400
C3950       C  0.62218248  0.24605547  0.91557268     0.19500
F3951       F  0.61862016  0.23849411  0.93754997    -0.13400
F3952       F  0.62088813  0.28471095  0.93015037    -0.15700
F3953       F  0.63341051  0.22432845  0.85689622    -0.15700
F3954       F  0.63608466  0.27075661  0.84964509    -0.13400
C3955       C  0.98685843  0.13641615  0.90035635     0.24600
C3956       C  0.97199889  0.13935498  0.88105898    -0.23500
C3957       C  0.98188583  0.14367911  0.85935772     0.19500
C3958       C  0.00598752  0.14393336  0.85669952     0.24600
C3959       C  0.02094740  0.13894479  0.87552586    -0.23400
C3960       C  0.01111713  0.13573833  0.89755040     0.19500
F3961       F  0.02482813  0.13105837  0.91608624    -0.13400
F3962       F  0.97778727  0.13405272  0.92196562    -0.15700
F3963       F  0.01480865  0.14870748  0.83537488    -0.15700
F3964       F  0.96820871  0.14870030  0.84087493    -0.13400
C3965       C  0.86233715  0.11241650  0.01745203     0.24600
C3966       C  0.86158065  0.13136964  0.03296956    -0.23500
C3967       C  0.86096530  0.15381329  0.02373669     0.19500
C3968       C  0.86123437  0.15726105  0.99963823     0.24600
C3969       C  0.86241466  0.13833295  0.98404727    -0.23400
C3970       C  0.86294741  0.11586013  0.99327097     0.19500
F3971       F  0.86470230  0.09730078  0.97897661    -0.13400
F3972       F  0.86213653  0.09040533  0.02582118    -0.15700
F3973       F  0.85978024  0.17930810  0.99149176    -0.15700
F3974       F  0.85865650  0.17237484  0.03798702    -0.13400
C3975       C  0.88331708  0.24620188  0.00054181     0.24600
C3976       C  0.86745361  0.24930643  0.98217026    -0.23500
C3977       C  0.85220246  0.26825487  0.98268439     0.19500
C3978       C  0.85456647  0.28517248  0.99956163     0.24600
C3979       C  0.87215575  0.28344633  0.01629047    -0.23400
C3980       C  0.88562024  0.26322300  0.01752596     0.19500
F3981       F  0.90242660  0.26076606  0.03377729    -0.13400
F3982       F  0.89799093  0.22783970  0.00127118    -0.15700
F3983       F  0.84048067  0.30400733  0.99864749    -0.15700
F3984       F  0.83585894  0.27120524  0.96600486    -0.13400
C3985       C  0.96304906  0.27395563  0.86733068     0.24600
C3986       C  0.96231799  0.25725313  0.88505628    -0.23500
C3987       C  0.97893274  0.25795865  0.90286908     0.19500
C3988       C  0.99488198  0.27613658  0.90380317     0.24600
C3989       C  0.99432526  0.29386409  0.88701900    -0.23400
C3990       C  0.97896459  0.29204284  0.86825294     0.19500
F3991       F  0.97908494  0.30796979  0.85091076    -0.13400
F3992       F  0.94786783  0.27312615  0.84938920    -0.15700
F3993       F  0.00971243  0.27720971  0.92201356    -0.15700
F3994       F  0.97866095  0.24220651  0.92038440    -0.13400
C3995       C  0.75894438  0.24447607  0.87764183     0.24600
C3996       C  0.77486475  0.24476686  0.89608895    -0.23500
C3997       C  0.77052077  0.25877543  0.91547322     0.19500
C3998       C  0.75235261  0.27466697  0.91493048     0.24600
C3999       C  0.73842565  0.27647870  0.89510165    -0.23400
C4000       C  0.74072393  0.26025313  0.87720183     0.19500
F4001       F  0.72743401  0.26162146  0.85784458    -0.13400
F4002       F  0.76249609  0.23099716  0.85869872    -0.15700
F4003       F  0.74956199  0.28962805  0.93286145    -0.15700
F4004       F  0.78475127  0.25822726  0.93418955    -0.13400
C4005       C  0.76347099  0.13815216  0.90858118     0.24600
C4006       C  0.77148996  0.13591824  0.88579583    -0.23500
C4007       C  0.75496395  0.13406614  0.86778142     0.19500
C4008       C  0.73101462  0.13347440  0.87259163     0.24600
C4009       C  0.72304354  0.13520991  0.89550312    -0.23400
C4010       C  0.73965079  0.13795987  0.91337425     0.19500
F4011       F  0.73279528  0.14104549  0.93569339    -0.13400
F4012       F  0.77864024  0.14208919  0.92608961    -0.15700
F4013       F  0.71574375  0.13071152  0.85495671    -0.15700
F4014       F  0.76209545  0.13323249  0.84535938    -0.13400
C4015       C  0.86564747  0.12074198  0.77231319     0.24600
C4016       C  0.87695456  0.13975980  0.78245341    -0.23500
C4017       C  0.88809586  0.15571598  0.76761964     0.19500
C4018       C  0.88849716  0.15249106  0.74347150     0.24600
C4019       C  0.87728434  0.13351562  0.73325457    -0.23400
C4020       C  0.86603376  0.11753109  0.74801332     0.19500
F4021       F  0.85591383  0.09841954  0.73888498    -0.13400
F4022       F  0.85371668  0.10562677  0.78583797    -0.15700
F4023       F  0.90088472  0.16736764  0.73007261    -0.15700
F4024       F  0.89876566  0.17458544  0.77664303    -0.13400
C4025       C  0.89144655  0.49676380  0.64584663     0.24600
C4026       C  0.87482276  0.47975259  0.63992878    -0.23500
C4027       C  0.85372231  0.48721501  0.63062451     0.19500
C4028       C  0.84880763  0.51103928  0.62855048     0.24600
C4029       C  0.86485305  0.52817541  0.63599518    -0.23400
C4030       C  0.88644430  0.52057298  0.64417015     0.19500
F4031       F  0.90278241  0.53607542  0.65069274    -0.13400
F4032       F  0.91265376  0.49031422  0.65374546    -0.15700
F4033       F  0.82781873  0.51716158  0.61989204    -0.15700
F4034       F  0.83724195  0.47152234  0.62486895    -0.13400
C4035       C  0.75669088  0.37201682  0.74844510     0.24600
C4036       C  0.77418829  0.38887327  0.75023461    -0.23500
C4037       C  0.77407953  0.40409838  0.76919270     0.19500
C4038       C  0.75903162  0.40034063  0.78762537     0.24600
C4039       C  0.74367338  0.38155479  0.78718636    -0.23400
C4040       C  0.74158074  0.36829546  0.76694201     0.19500
F4041       F  0.72668943  0.35018028  0.76587607    -0.13400
F4042       F  0.75550793  0.35751705  0.73003219    -0.15700
F4043       F  0.76047345  0.41422153  0.80652228    -0.15700
F4044       F  0.78989107  0.42141320  0.77080265    -0.13400
C4045       C  0.76878143  0.40884753  0.63313818     0.24600
C4046       C  0.77611805  0.38589613  0.63582053    -0.23500
C4047       C  0.75901302  0.36845290  0.63801715     0.19500
C4048       C  0.73518701  0.37391183  0.63774191     0.24600
C4049       C  0.72776682  0.39700832  0.63563676    -0.23400
C4050       C  0.74505986  0.41441568  0.63344077     0.19500
F4051       F  0.73923197  0.43720022  0.63265849    -0.13400
F4052       F  0.78460909  0.42616064  0.63188560    -0.15700
F4053       F  0.71943618  0.35657247  0.63938188    -0.15700
F4054       F  0.76544514  0.34596049  0.64079748    -0.13400
C4055       C  0.88407269  0.50722680  0.77286007     0.24600
C4056       C  0.86659837  0.50862091  0.78969228    -0.23500
C4057       C  0.84615562  0.49592256  0.78700329     0.19500
C4058       C  0.84468476  0.47925857  0.76971449     0.24600
C4059       C  0.86365254  0.47538653  0.75495293    -0.23400
C4060       C  0.88267102  0.49056282  0.75554161     0.19500
F4061       F  0.90103959  0.48773104  0.74109713    -0.13400
F4062       F  0.90364927  0.52007911  0.77466200    -0.15700
F4063       F  0.82534813  0.46600534  0.76833856    -0.15700
F4064       F  0.82816412  0.49881197  0.80187124    -0.13400
C4065       C  0.98503020  0.38069251  0.62623283     0.24600
C4066       C  0.97697739  0.37732692  0.64897192    -0.23500
C4067       C  0.99361703  0.37449916  0.66683729     0.19500
C4068       C  0.01745979  0.37471941  0.66208804     0.24600
C4069       C  0.02548475  0.37744546  0.63934976    -0.23400
C4070       C  0.00900548  0.38058736  0.62147510     0.19500
F4071       F  0.01622551  0.38281154  0.59916775    -0.13400
F4072       F  0.96979861  0.38433574  0.60869127    -0.15700
F4073       F  0.03266936  0.37045250  0.67953097    -0.15700
F4074       F  0.98680694  0.37055406  0.68904149    -0.13400
C4075       C  0.97648345  0.39203072  0.76442654     0.24600
C4076       C  0.95943161  0.37472753  0.76609647    -0.23500
C4077       C  0.96056927  0.35844723  0.78422535     0.19500
C4078       C  0.97719781  0.36070261  0.80152445     0.24600
C4079       C  0.99311440  0.37899665  0.80072910    -0.23400
C4080       C  0.99307522  0.39427862  0.78173873     0.19500
F4081       F  0.00783693  0.41251814  0.78072106    -0.13400
F4082       F  0.97624161  0.40784282  0.74694217    -0.15700
F4083       F  0.97746133  0.34526478  0.81932241    -0.15700
F4084       F  0.94537979  0.34059046  0.78549127    -0.13400
C4085       C  0.85904676  0.25515267  0.77845778     0.24600
C4086       C  0.87669254  0.25629306  0.79520325    -0.23500
C4087       C  0.89426124  0.27288115  0.79306513     0.19500
C4088       C  0.89309755  0.28942584  0.77558995     0.24600
C4089       C  0.87443865  0.28944654  0.76004454    -0.23400
C4090       C  0.85788420  0.27174141  0.76098627     0.19500
F4091       F  0.83932761  0.27173642  0.74656427    -0.13400
F4092       F  0.84173375  0.23934994  0.78011120    -0.15700
F4093       F  0.90963298  0.30608219  0.77450163    -0.15700
F4094       F  0.91207467  0.27365516  0.80837756    -0.13400
C4095       C  0.87122153  0.23740094  0.65905899     0.24600
C4096       C  0.87997881  0.22927128  0.63802164    -0.23500
C4097       C  0.88771239  0.24576279  0.62141378     0.19500
C4098       C  0.88717091  0.26966680  0.62597682     0.24600
C4099       C  0.87865323  0.27787420  0.64715082    -0.23400
C4100       C  0.87068015  0.26129083  0.66364903     0.19500
F4101       F  0.86292172  0.26799595  0.68477652    -0.13400
F4102       F  0.86437682  0.22224465  0.67574362    -0.15700
F4103       F  0.89490211  0.28468015  0.60957825    -0.15700
F4104       F  0.89619238  0.23870107  0.60061769    -0.13400
C4105       C  0.63217754  0.76627591  0.89699570     0.24600
C4106       C  0.61905869  0.77885119  0.88063143    -0.23500
C4107       C  0.60592321  0.76634668  0.86444524     0.19500
C4108       C  0.60590854  0.74202838  0.86452628     0.24600
C4109       C  0.61904697  0.72934552  0.88081576    -0.23400
C4110       C  0.63255331  0.74181437  0.89677054     0.19500
F4111       F  0.64676876  0.73029577  0.91159129    -0.13400
F4112       F  0.64409067  0.77771632  0.91366959    -0.15700
F4113       F  0.59367983  0.73072373  0.84795905    -0.15700
F4114       F  0.59228753  0.77782188  0.84902118    -0.13400
C4115       C  0.60585807  0.88612776  0.74396125     0.24600
C4116       C  0.62025322  0.86823205  0.73614390    -0.23500
C4117       C  0.63203594  0.85463051  0.75313543     0.19500
C4118       C  0.62901888  0.85842914  0.77693707     0.24600
C4119       C  0.61462179  0.87623591  0.78474383    -0.23400
C4120       C  0.60319720  0.89022192  0.76784741     0.19500
F4121       F  0.58926204  0.90806748  0.77430214    -0.13400
F4122       F  0.59432550  0.89975359  0.72860039    -0.15700
F4123       F  0.63986325  0.84421292  0.79227122    -0.15700
F4124       F  0.64670514  0.83732983  0.74699035    -0.13400
C4125       C  0.63461045  0.98817338  0.88792697     0.24600
C4126       C  0.61217058  0.97947359  0.89124645    -0.23500
C4127       C  0.59376545  0.99553414  0.89379482     0.19500
C4128       C  0.59771369  0.01955733  0.89351854     0.24600
C4129       C  0.62013090  0.02828560  0.89051733    -0.23400
C4130       C  0.63854905  0.01229630  0.88771160     0.19500
F4131       F  0.66056647  0.02014195  0.88528712    -0.13400
F4132       F  0.65260749  0.97342427  0.88435460    -0.15700
F4133       F  0.57981416  0.03425342  0.89776854    -0.15700
F4134       F  0.57180913  0.98789501  0.89725988    -0.13400
C4135       C  0.63106405  0.87788642  0.99580965     0.24600
C4136       C  0.60891194  0.88195215  0.98673323    -0.23500
C4137       C  0.59037618  0.88558279  0.00243927     0.19500
C4138       C  0.59375833  0.88455450  0.02650891     0.24600
C4139       C  0.61578017  0.88012361  0.03561161    -0.23400
C4140       C  0.63448085  0.87715099  0.01998791     0.19500
F4141       F  0.65624426  0.87382187  0.02826140    -0.13400
F4142       F  0.64921776  0.87394354  0.98136265    -0.15700
F4143       F  0.57575437  0.88928836  0.04091285    -0.15700
F4144       F  0.56879171  0.89041309  0.99439893    -0.13400
C4145       C  0.35882367  0.77212346  0.14196499     0.24600
C4146       C  0.36552326  0.78036029  0.12006972    -0.23500
C4147       C  0.37121127  0.76374480  0.10278338     0.19500
C4148       C  0.37017336  0.73983276  0.10724161     0.24600
C4149       C  0.36313503  0.73165781  0.12895762    -0.23400
C4150       C  0.35762291  0.74812154  0.14634708     0.19500
F4151       F  0.35101280  0.74094539  0.16779216    -0.13400
F4152       F  0.35367315  0.78719352  0.15924680    -0.15700
F4153       F  0.37485873  0.72471918  0.08984855    -0.15700
F4154       F  0.37724497  0.77049465  0.08107214    -0.13400
C4155       C  0.26234939  0.85270849  0.12117003     0.24600
C4156       C  0.27032054  0.87546191  0.12354247    -0.23500
C4157       C  0.25389798  0.89339439  0.12672168     0.19500
C4158       C  0.23002725  0.88862013  0.12787748     0.24600
C4159       C  0.22202535  0.86586105  0.12536432    -0.23400
C4160       C  0.23854040  0.84796057  0.12189223     0.19500
F4161       F  0.23160057  0.82572282  0.11868090    -0.13400
F4162       F  0.27751691  0.83522709  0.11678364    -0.15700
F4163       F  0.21485428  0.90610448  0.13212996    -0.15700
F4164       F  0.26106153  0.91570378  0.12847424    -0.13400
C4165       C  0.48840424  0.87412183  0.10989014     0.24600
C4166       C  0.47116121  0.88161550  0.12593157    -0.23500
C4167       C  0.47869549  0.88965043  0.14757611     0.19500
C4168       C  0.50255602  0.89135317  0.15248158     0.24600
C4169       C  0.51960179  0.88517609  0.13583201    -0.23400
C4170       C  0.51215070  0.87584046  0.11483485     0.19500
F4171       F  0.52784056  0.86982354  0.09834825    -0.13400
F4172       F  0.48253449  0.86579325  0.08876280    -0.15700
F4173       F  0.50902238  0.89947526  0.17356426    -0.15700
F4174       F  0.46308250  0.89599927  0.16398602    -0.13400
C4175       C  0.46814967  0.90581369  0.99437088     0.24600
C4176       C  0.46677132  0.88834143  0.01124083    -0.23500
C4177       C  0.48415622  0.87111955  0.01206877     0.19500
C4178       C  0.50041736  0.86952202  0.99420786     0.24600
C4179       C  0.49933951  0.88500974  0.97543160    -0.23400
C4180       C  0.48439126  0.90419250  0.97662895     0.19500
F4181       F  0.48477088  0.92087738  0.96007593    -0.13400
F4182       F  0.45289902  0.92377736  0.99430244    -0.15700
F4183       F  0.51574749  0.85162756  0.99430586    -0.15700
F4184       F  0.48434647  0.85455364  0.02879355    -0.13400
C4185       C  0.39504629  0.99014556  0.12810715     0.24600
C4186       C  0.37217380  0.98254278  0.12610567    -0.23500
C4187       C  0.35442260  0.99954775  0.12431874     0.19500
C4188       C  0.35948031  0.02344669  0.12479910     0.24600
C4189       C  0.38241988  0.03101595  0.12691383    -0.23400
C4190       C  0.40011988  0.01395786  0.12836541     0.19500
F4191       F  0.42268575  0.02030453  0.12913295    -0.13400
F4192       F  0.41268403  0.97454415  0.12816178    -0.15700
F4193       F  0.34192330  0.03909293  0.12357053    -0.15700
F4194       F  0.33202631  0.99296839  0.12164914    -0.13400
C4195       C  0.23876809  0.13613305  0.85421444     0.24600
C4196       C  0.22200055  0.12565617  0.86902640    -0.23500
C4197       C  0.23003099  0.11248335  0.88777125     0.19500
C4198       C  0.25386357  0.10980532  0.89167626     0.24600
C4199       C  0.27063311  0.11990068  0.87664515    -0.23400
C4200       C  0.26266988  0.13317317  0.85794682     0.19500
F4201       F  0.27792270  0.14280021  0.84283856    -0.13400
F4202       F  0.23222509  0.14918737  0.83574092    -0.15700
F4203       F  0.26037871  0.09712720  0.91044900    -0.15700
F4204       F  0.21490156  0.10206943  0.90246031    -0.13400
C4205       C  0.36733611  0.09554616  0.76402429     0.24600
C4206       C  0.36812535  0.11331714  0.78099689    -0.23500
C4207       C  0.36762201  0.13643049  0.77342309     0.19500
C4208       C  0.36624788  0.14161560  0.74959880     0.24600
C4209       C  0.36581434  0.12382941  0.73280657    -0.23400
C4210       C  0.36664244  0.10078464  0.74028972     0.19500
F4211       F  0.36505411  0.08326926  0.72469397    -0.13400
F4212       F  0.36614452  0.07288643  0.77031534    -0.15700
F4213       F  0.36489511  0.16413852  0.74285085    -0.15700
F4214       F  0.36865644  0.15397797  0.78899476    -0.13400
C4215       C  0.48990201  0.11003695  0.86594269     0.24600
C4216       C  0.47268287  0.11899771  0.88117810    -0.23500
C4217       C  0.48000947  0.13278684  0.89962345     0.19500
C4218       C  0.50375648  0.13626597  0.90370124     0.24600
C4219       C  0.52110766  0.12562613  0.88962505    -0.23400
C4220       C  0.51369308  0.11296846  0.87035072     0.19500
F4221       F  0.52937218  0.10305175  0.85589100    -0.13400
F4222       F  0.48383361  0.09825546  0.84656527    -0.15700
F4223       F  0.50955100  0.14977542  0.92200520    -0.15700
F4224       F  0.46425396  0.14200337  0.91448597    -0.13400
C4225       C  0.46521462  0.98626001  0.91214432     0.24600
C4226       C  0.46122907  0.00081556  0.89302867    -0.23500
C4227       C  0.47517367  0.99891842  0.87312653     0.19500
C4228       C  0.49224881  0.98199442  0.87201214     0.24600
C4229       C  0.49555677  0.96685312  0.89075956    -0.23400
C4230       C  0.48226352  0.96924191  0.91092520     0.19500
F4231       F  0.48547296  0.95474498  0.92917496    -0.13400
F4232       F  0.45220860  0.98808843  0.93168891    -0.15700
F4233       F  0.50408954  0.97915397  0.85185475    -0.15700
F4234       F  0.47107132  0.01205550  0.85398348    -0.13400
C4235       C  0.38722346  0.14309757  0.99010651     0.24600
C4236       C  0.37699943  0.12222701  0.98308500    -0.23500
C4237       C  0.36975227  0.10661832  0.00082059     0.19500
C4238       C  0.37323004  0.11132487  0.02444352     0.24600
C4239       C  0.38411094  0.13172025  0.03139899    -0.23400
C4240       C  0.39064283  0.14783578  0.01387717     0.19500
F4241       F  0.40031371  0.16842287  0.01969539    -0.13400
F4242       F  0.39377355  0.15905274  0.97407575    -0.15700
F4243       F  0.36702052  0.09521460  0.04046721    -0.15700
F4244       F  0.35973155  0.08614761  0.99553302    -0.13400
C4245       C  0.36164627  0.01218550  0.99940654     0.24600
C4246       C  0.37848233  0.01292143  0.98184484    -0.23500
C4247       C  0.39854421  0.99931392  0.98373182     0.19500
C4248       C  0.40020232  0.98273040  0.00118622     0.24600
C4249       C  0.38160085  0.97947556  0.01652768    -0.23400
C4250       C  0.36322465  0.99550681  0.01677138     0.19500
F4251       F  0.34535415  0.99336443  0.03194980    -0.13400
F4252       F  0.34225136  0.02548076  0.99827596    -0.15700
F4253       F  0.41911117  0.96870675  0.00195846    -0.15700
F4254       F  0.41572260  0.00094321  0.96770716    -0.13400
C4255       C  0.39987556  0.63525153  0.77558332     0.24600
C4256       C  0.37886189  0.62817787  0.78544774    -0.23500
C4257       C  0.36085548  0.62120118  0.77044536     0.19500
C4258       C  0.36391921  0.62117788  0.74615423     0.24600
C4259       C  0.38479299  0.62890196  0.73631271    -0.23400
C4260       C  0.40279986  0.63565267  0.75143047     0.19500
F4261       F  0.42346880  0.64272370  0.74269505    -0.13400
F4262       F  0.41716879  0.64316105  0.78935842    -0.15700
F4263       F  0.34680099  0.61297250  0.73235313    -0.15700
F4264       F  0.34001069  0.61498299  0.77938431    -0.13400
C4265       C  0.49142423  0.77801450  0.85111451     0.24600
C4266       C  0.50716760  0.78039098  0.86947645    -0.23500
C4267       C  0.50895716  0.76254738  0.88606496     0.19500
C4268       C  0.49265857  0.74471869  0.88646173     0.24600
C4269       C  0.47454510  0.74456545  0.87016484    -0.23400
C4270       C  0.47515678  0.76026244  0.85150933     0.19500
F4271       F  0.45894967  0.75943279  0.83449405    -0.13400
F4272       F  0.49083722  0.79361342  0.83347082    -0.15700
F4273       F  0.49341850  0.72917188  0.90412981    -0.15700
F4274       F  0.52498887  0.76346043  0.90323634    -0.13400
C4275       C  0.49172786  0.64181724  0.90160669     0.24600
C4276       C  0.47549677  0.63202319  0.88592294    -0.23500
C4277       C  0.48407715  0.61883267  0.86753862     0.19500
C4278       C  0.50807462  0.61646044  0.86415189     0.24600
C4279       C  0.52442950  0.62744251  0.87902023    -0.23400
C4280       C  0.51577572  0.63965323  0.89811687     0.19500
F4281       F  0.53047856  0.64981622  0.91330728    -0.13400
F4282       F  0.48435175  0.65394279  0.92037106    -0.15700
F4283       F  0.51507591  0.60362433  0.84575485    -0.15700
F4284       F  0.46932646  0.60907988  0.85210636    -0.13400
C4285       C  0.36294672  0.62112140  0.99314740     0.24600
C4286       C  0.36753107  0.64360549  0.98516496    -0.23500
C4287       C  0.37077429  0.66134873  0.00184889     0.19500
C4288       C  0.36911211  0.65672966  0.02575393     0.24600
C4289       C  0.36409586  0.63433344  0.03363960    -0.23400
C4290       C  0.36133371  0.61653075  0.01702839     0.19500
F4291       F  0.35681274  0.59449149  0.02395637    -0.13400
F4292       F  0.36036831  0.60344237  0.97791704    -0.15700
F4293       F  0.37100316  0.67443831  0.04108072    -0.15700
F4294       F  0.37477623  0.68351622  0.99505808    -0.13400
C4295       C  0.35657628  0.77934478  0.96474616     0.24600
C4296       C  0.36930601  0.75889823  0.96870872    -0.23500
C4297       C  0.37832671  0.75465118  0.99096635     0.19500
C4298       C  0.37666406  0.77148262  0.00813319     0.24600
C4299       C  0.36614909  0.79298857  0.00332627    -0.23400
C4300       C  0.35501086  0.79621245  0.98186279     0.19500
F4301       F  0.34339748  0.81612402  0.97691588    -0.13400
F4302       F  0.34637601  0.78358144  0.94395487    -0.15700
F4303       F  0.38640272  0.76683276  0.02899521    -0.15700
F4304       F  0.38987443  0.73481702  0.99609184    -0.13400
C4305       C  0.26647933  0.63110829  0.90578262     0.24600
C4306       C  0.27412360  0.63971213  0.88447880    -0.23500
C4307       C  0.25728046  0.64525845  0.86739862     0.19500
C4308       C  0.23343227  0.64342887  0.87204255     0.24600
C4309       C  0.22570897  0.63558183  0.89369378    -0.23400
C4310       C  0.24271280  0.62906722  0.91036782     0.19500
F4311       F  0.23654090  0.62119982  0.93163965    -0.13400
F4312       F  0.28195134  0.62578054  0.92270040    -0.15700
F4313       F  0.21800450  0.64909035  0.85522085    -0.15700
F4314       F  0.26384995  0.65241672  0.84594875    -0.13400
C4315       C  0.15454348  0.99658867  0.87031442     0.24600
C4316       C  0.13660800  0.98044307  0.87475211    -0.23500
C4317       C  0.11399141  0.98908929  0.87744085     0.19500
C4318       C  0.10951423  0.01314393  0.87579833     0.24600
C4319       C  0.12756649  0.02924467  0.87189522    -0.23400
C4320       C  0.15008099  0.02056685  0.86891044     0.19500
F4321       F  0.16763253  0.03520004  0.86341825    -0.13400
F4322       F  0.17658468  0.98905810  0.86688537    -0.15700
F4323       F  0.08736768  0.02080137  0.87795782    -0.15700
F4324       F  0.09634572  0.97439928  0.88240107    -0.13400
C4325       C  0.12670582  0.89289080  0.02288780     0.24600
C4326       C  0.12369148  0.87002865  0.03063795    -0.23500
C4327       C  0.12029694  0.85253787  0.01368720     0.19500
C4328       C  0.12059734  0.85761167  0.98986808     0.24600
C4329       C  0.12467518  0.88018763  0.98214333    -0.23400
C4330       C  0.12715078  0.89791068  0.99895427     0.19500
F4331       F  0.13077128  0.92015442  0.99211615    -0.13400
F4332       F  0.12920336  0.91037938  0.03836089    -0.15700
F4333       F  0.11874183  0.84006982  0.97435494    -0.15700
F4334       F  0.11774486  0.83004690  0.02003940    -0.13400
C4335       C  0.25918706  0.88866514  0.01270560     0.24600
C4336       C  0.27752188  0.87259396  0.01223054    -0.23500
C4337       C  0.27512165  0.85200410  0.99962643     0.19500
C4338       C  0.25620678  0.84912542  0.98499939     0.24600
C4339       C  0.23990627  0.86710832  0.98244010    -0.23400
C4340       C  0.24034336  0.88588298  0.99788504     0.19500
F4341       F  0.22401089  0.90282871  0.99690105    -0.13400
F4342       F  0.26059734  0.90826825  0.02558288    -0.15700
F4343       F  0.25483791  0.82959478  0.97199276    -0.15700
F4344       F  0.29163514  0.83522262  0.00055377    -0.13400
C4345       C  0.24222384  0.98921311  0.88895974     0.24600
C4346       C  0.24713239  0.96918866  0.87591979    -0.23500
C4347       C  0.26471494  0.96995647  0.85911703     0.19500
C4348       C  0.27956380  0.98881898  0.85814243     0.24600
C4349       C  0.27702196  0.00712545  0.87396124    -0.23400
C4350       C  0.25711069  0.00819808  0.88791827     0.19500
F4351       F  0.25317080  0.02642124  0.90220564    -0.13400
F4352       F  0.22430070  0.98974352  0.90420821    -0.15700
F4353       F  0.29759192  0.98827557  0.84299263    -0.15700
F4354       F  0.26838596  0.95204770  0.84438472    -0.13400
C4355       C  0.26589682  0.78302635  0.90902843     0.24600
C4356       C  0.24788280  0.78227838  0.89264608    -0.23500
C4357       C  0.24764297  0.76422068  0.87627612     0.19500
C4358       C  0.26658325  0.74919894  0.87445281     0.24600
C4359       C  0.28601465  0.75219836  0.88879064    -0.23400
C4360       C  0.28479301  0.76809982  0.90712741     0.19500
F4361       F  0.30216706  0.76975304  0.92284929    -0.13400
F4362       F  0.26589488  0.79913769  0.92615588    -0.15700
F4363       F  0.26658450  0.73294471  0.85747482    -0.15700
F4364       F  0.23014816  0.76208346  0.86078474    -0.13400
C4365       C  0.10986931  0.77119282  0.89749206     0.24600
C4366       C  0.12900841  0.77836309  0.88441150    -0.23500
C4367       C  0.14263711  0.76086996  0.87351282     0.19500
C4368       C  0.13846569  0.73716284  0.87735913     0.24600
C4369       C  0.12040039  0.73003493  0.89187299    -0.23400
C4370       C  0.10540394  0.74745127  0.90089948     0.19500
F4371       F  0.08613214  0.74171963  0.91306697    -0.13400
F4372       F  0.09558453  0.78706710  0.90736130    -0.15700
F4373       F  0.15277215  0.72123783  0.86757572    -0.15700
F4374       F  0.16054337  0.76651472  0.85933143    -0.13400
C4375       C  0.15000463  0.86752618  0.76468367     0.24600
C4376       C  0.13577713  0.87859780  0.78154592    -0.23500
C4377       C  0.11611337  0.89054623  0.77368271     0.19500
C4378       C  0.11154656  0.89256682  0.74984616     0.24600
C4379       C  0.12673114  0.88305052  0.73299729    -0.23400
C4380       C  0.14552782  0.86977257  0.74079321     0.19500
F4381       F  0.16019078  0.85971908  0.72537890    -0.13400
F4382       F  0.16875593  0.85481923  0.77112470    -0.15700
F4383       F  0.09218103  0.90425319  0.74328158    -0.15700
F4384       F  0.10136322  0.90067012  0.78893943    -0.13400
C4385       C  0.35734673  0.75982560  0.64340761     0.24600
C4386       C  0.37416646  0.77679143  0.63776356    -0.23500
C4387       C  0.39573309  0.76925954  0.62971144     0.19500
C4388       C  0.40090767  0.74545274  0.62875203     0.24600
C4389       C  0.38463134  0.72837880  0.63603801    -0.23400
C4390       C  0.36258439  0.73601024  0.64284527     0.19500
F4391       F  0.34611728  0.72056029  0.64930120    -0.13400
F4392       F  0.33581827  0.76639161  0.65030138    -0.15700
F4393       F  0.42242005  0.73934324  0.62147883    -0.15700
F4394       F  0.41243201  0.78490479  0.62433207    -0.13400
C4395       C  0.48545802  0.86954595  0.61876713     0.24600
C4396       C  0.47410666  0.86467822  0.63970609    -0.23500
C4397       C  0.48765402  0.85917500  0.65936594     0.19500
C4398       C  0.51186788  0.85965018  0.65846038     0.24600
C4399       C  0.52329070  0.86498245  0.63770759    -0.23400
C4400       C  0.50983347  0.86929071  0.61769365     0.19500
F4401       F  0.52040425  0.87269130  0.59693171    -0.13400
F4402       F  0.47302945  0.87514047  0.59959268    -0.15700
F4403       F  0.52419890  0.85368211  0.67761754    -0.15700
F4404       F  0.47727968  0.85339200  0.67969353    -0.13400
C4405       C  0.41015963  0.77177495  0.76194281     0.24600
C4406       C  0.39004832  0.77658605  0.74915338    -0.23500
C4407       C  0.37093233  0.76161968  0.75086214     0.19500
C4408       C  0.37075663  0.74416991  0.76762377     0.24600
C4409       C  0.38967119  0.74168733  0.78272711    -0.23400
C4410       C  0.40996760  0.75435569  0.77865536     0.19500
F4411       F  0.42901198  0.75104800  0.79205773    -0.13400
F4412       F  0.42944332  0.78495396  0.75941503    -0.15700
F4413       F  0.35110531  0.73167292  0.77077413    -0.15700
F4414       F  0.35143165  0.76544242  0.73826948    -0.13400
C4415       C  0.47767680  0.84700313  0.76672846     0.24600
C4416       C  0.47823460  0.86305739  0.74837844    -0.23500
C4417       C  0.49628695  0.87932353  0.74736797     0.19500
C4418       C  0.51095820  0.88206269  0.76636258     0.24600
C4419       C  0.50791201  0.86827028  0.78632693    -0.23400
C4420       C  0.49216853  0.84978921  0.78570633     0.19500
F4421       F  0.48964397  0.83530120  0.80412045    -0.13400
F4422       F  0.46159991  0.82986373  0.76731774    -0.15700
F4423       F  0.52651302  0.89961801  0.76582878    -0.15700
F4424       F  0.49854816  0.89405095  0.72914070    -0.13400
C4425       C  0.38059304  0.99477207  0.66420587     0.24600
C4426       C  0.37271260  0.97804683  0.64794521    -0.23500
C4427       C  0.36358363  0.98607456  0.62693208     0.19500
C4428       C  0.36192609  0.00994141  0.62244839     0.24600
C4429       C  0.36908449  0.02663391  0.63899959    -0.23400
C4430       C  0.37872083  0.01869385  0.65978379     0.19500
F4431       F  0.38523372  0.03399086  0.67635907    -0.13400
F4432       F  0.38962021  0.98812743  0.68488448    -0.15700
F4433       F  0.35293551  0.01670727  0.60175075    -0.15700
F4434       F  0.35637593  0.97090937  0.61053981    -0.13400
C4435       C  0.39129712  0.98237715  0.76316827     0.24600
C4436       C  0.37620005  0.96347331  0.76190557    -0.23500
C4437       C  0.35629634  0.96289980  0.77585263     0.19500
C4438       C  0.35237500  0.98019995  0.79215896     0.24600
C4439       C  0.36854678  0.99809209  0.79489818    -0.23400
C4440       C  0.38743934  0.99969453  0.77947725     0.19500
F4441       F  0.40321811  0.01700116  0.78122428    -0.13400
F4442       F  0.41083753  0.98314636  0.75007536    -0.15700
F4443       F  0.33311081  0.97907909  0.80561904    -0.15700
F4444       F  0.34092920  0.94526334  0.77403429    -0.13400
C4445       C  0.29310093  0.89692064  0.78489679     0.24600
C4446       C  0.29321655  0.88148908  0.76613758    -0.23500
C4447       C  0.27397664  0.86705608  0.76246696     0.19500
C4448       C  0.25587577  0.86663257  0.77839128     0.24600
C4449       C  0.25649763  0.88100536  0.79798073    -0.23400
C4450       C  0.27489861  0.89667262  0.80067428     0.19500
F4451       F  0.27578607  0.91119699  0.81912232    -0.13400
F4452       F  0.31076512  0.91191870  0.78842382    -0.15700
F4453       F  0.23880488  0.85084240  0.77539094    -0.15700
F4454       F  0.27326995  0.85211970  0.74433113    -0.13400
C4455       C  0.25687532  0.88346985  0.66814004     0.24600
C4456       C  0.27376619  0.88146130  0.65035720    -0.23500
C4457       C  0.26601073  0.88023046  0.62733513     0.19500
C4458       C  0.24212920  0.88128046  0.62226492     0.24600
C4459       C  0.22534124  0.88322610  0.64007388    -0.23400
C4460       C  0.23307527  0.88429909  0.66304749     0.19500
F4461       F  0.21768977  0.88788231  0.68050234    -0.13400
F4462       F  0.26340200  0.88560715  0.69063821    -0.15700
F4463       F  0.23533325  0.88100890  0.59974169    -0.15700
F4464       F  0.28145831  0.87769857  0.60976306    -0.13400
loop_ 
_geom_bond_atom_site_label_1 
_geom_bond_atom_site_label_2 
_geom_bond_distance 
_geom_bond_site_symmetry_2 
_ccdc_geom_bond_type 
C1           N19   1.374       .  A
C1           C38   1.440       .  S
C1         C4456   1.502       .  S
N2           N19   1.341       .  A
N2           N24   1.321       .  A
N2          Co39   2.175       .  S
C3           N28   1.335       .  A
C3           C41   1.458       .  S
C3           H48   1.081       .  S
H4           C45   1.080       .  S
C5           N29   1.338       .  A
C5            C9   1.455       .  S
C5           H34   1.079       .  S
Co6          N24   2.040       .  S
Co6          N14   2.057       .  S
Co6          N46   2.028       .  S
Co6          N22   2.067       .  S
Co6         Cl50   2.417       .  S
N7           C45   1.336       .  A
N7           N14   1.313       .  A
N7           Co8   2.055       .  S
Co8          N11   2.058       .  S
Co8          N28   2.056       .  S
Co8          N15   2.055       .  S
Co8         Cl50   2.453       .  S
C9           N47   1.344       .  A
C9         C4436   1.459       .  S
N10          N17   1.323       .  A
N10          N40   1.316       .  A
N10         Co43   2.035       .  S
N11          N29   1.315       .  A
N11          N47   1.319       .  A
N12          C41   1.347       .  A
N12          N22   1.321       .  A
H13          C38   1.082       .  S
N14          N35   1.318       .  A
N15          N33   1.312       .  A
N15          N20   1.317       .  A
C16          N20   1.348       .  A
C16          C44   1.464       .  S
C16        C4416   1.470       .  S
N17          C32   1.361       .  A
N17         Co39   2.171       .  S
C18          N46   1.323       .  A
C18          C21   1.434       .  S
C18          H52   1.081       .  S
C21          N42   1.373       .  A
C21        C4386   1.493       .  S
N22          N28   1.314       .  A
N23          C49   1.363       .  A
N23          N25   1.323       .  A
N23         Co39   2.162       .  S
N24          C38   1.328       .  A
N25          N53   1.310       .  A
N25         Co43   2.025       .  S
H26          C49   1.082       .  S
H27          C44   1.079       .  S
N29         Co43   2.062       .  S
N30          N42   1.341       .  A
N30          N46   1.320       .  A
N30         Co39   2.168       .  S
C31          N35   1.346       .  A
C31          C45   1.460       .  S
C31        C4446   1.466       .  S
C32          C51   1.493       .  S
C32          H36   1.082       .  S
N33          C44   1.340       .  A
N33         Co43   2.070       .  S
C37          N53   1.328       .  A
C37          C49   1.490       .  S
C37        C4396   1.482       .  S
Co39        Cl50   2.480       .  S
N40          C51   1.334       .  A
C41        C4406   1.465       .  S
Co43        Cl50   2.428       .  S
C51        C4426   1.500       .  S
C54          N72   1.345       .  A
C54          C91   1.460       .  S
C54        C4346   1.470       .  S
N55          N72   1.321       .  A
N55          N77   1.313       .  A
N55         Co92   2.056       .  S
C56          N81   1.342       .  A
C56          C94   1.466       .  S
C56         H101   1.080       .  S
H57          C98   1.080       .  S
C58          N82   1.360       .  A
C58          C62   1.493       .  S
C58          H87   1.081       .  S
Co59         N77   2.062       .  S
Co59         N67   2.051       .  S
Co59         N99   2.049       .  S
Co59         N75   2.060       .  S
Co59       Cl103   2.465       .  S
N60          C98   1.338       .  A
N60          N67   1.314       .  A
N60         Co61   2.067       .  S
Co61         N64   2.047       .  S
Co61         N81   2.075       .  S
Co61         N68   2.041       .  S
Co61       Cl103   2.426       .  S
C62         N100   1.337       .  A
C62        C4376   1.505       .  S
N63          N70   1.324       .  A
N63          N93   1.343       .  A
N63         Co96   2.185       .  S
N64          N82   1.323       .  A
N64         N100   1.317       .  A
N65          C94   1.348       .  A
N65          N75   1.319       .  A
H66          C91   1.080       .  S
N67          N88   1.317       .  A
N68          N86   1.324       .  A
N68          N73   1.314       .  A
C69          N73   1.333       .  A
C69          C97   1.498       .  S
C69        C4366   1.507       .  S
N70          C85   1.330       .  A
N70         Co92   2.050       .  S
C71          N99   1.331       .  A
C71          C74   1.456       .  S
C71         H105   1.081       .  S
C74          N95   1.353       .  A
C74        C4339   1.468       .  S
N75          N81   1.313       .  A
N76         C102   1.325       .  A
N76          N78   1.321       .  A
N76         Co92   2.025       .  S
N77          C91   1.336       .  A
N78         N106   1.341       .  A
N78         Co96   2.176       .  S
H79         C102   1.082       .  S
H80          C97   1.081       .  S
N82         Co96   2.163       .  S
N83          N95   1.324       .  A
N83          N99   1.314       .  A
N83         Co92   2.081       .  S
C84          N88   1.345       .  A
C84          C98   1.463       .  S
C84        C4449   1.466       .  S
C85         C104   1.439       .  S
C85          H89   1.082       .  S
N86          C97   1.364       .  A
N86         Co96   2.177       .  S
C90         N106   1.374       .  A
C90         C102   1.432       .  S
C90        C4329   1.491       .  S
Co92       Cl103   2.430       .  S
N93         C104   1.374       .  A
C94        C4356   1.477       .  S
Co96       Cl103   2.474       .  S
C104       C4316   1.504       .  S
C107        N125   1.347       .  A
C107        C144   1.457       .  S
C107       C4409   1.462       .  S
N108        N125   1.322       .  A
N108        N130   1.314       .  A
N108       Co145   2.063       .  S
C109        N134   1.335       .  A
C109        C147   1.460       .  S
C109        H154   1.080       .  S
H110        C151   1.080       .  S
C111        N135   1.365       .  A
C111        C115   1.497       .  S
C111        H140   1.082       .  S
Co112       N130   2.059       .  S
Co112       N120   2.068       .  S
Co112       N152   2.068       .  S
Co112       N128   2.059       .  S
Co112      Cl156   2.466       .  S
N113        C151   1.341       .  A
N113        N120   1.314       .  A
N113       Co114   2.073       .  S
Co114       N117   2.031       .  S
Co114       N134   2.057       .  S
Co114       N121   2.046       .  S
Co114      Cl156   2.426       .  S
C115        N153   1.331       .  A
C115       C4276   1.500       .  S
N116        N123   1.323       .  A
N116        N146   1.340       .  A
N116       Co149   2.169       .  S
N117        N135   1.322       .  A
N117        N153   1.313       .  A
N118        C147   1.348       .  A
N118        N128   1.319       .  A
H119        C144   1.081       .  S
N120        N141   1.320       .  A
N121        N139   1.323       .  A
N121        N126   1.317       .  A
C122        N126   1.336       .  A
C122        C150   1.489       .  S
C122       C4286   1.497       .  S
N123        C138   1.327       .  A
N123       Co145   2.037       .  S
C124        N152   1.338       .  A
C124        C127   1.460       .  S
C124        H158   1.080       .  S
C127        N148   1.347       .  A
C127       C4359   1.473       .  S
N128        N134   1.312       .  A
N129        C155   1.325       .  A
N129        N131   1.321       .  A
N129       Co145   2.028       .  S
N130        C144   1.334       .  A
N131        N159   1.340       .  A
N131       Co149   2.174       .  S
H132        C155   1.081       .  S
H133        C150   1.082       .  S
N135       Co149   2.174       .  S
N136        N148   1.323       .  A
N136        N152   1.314       .  A
N136       Co145   2.067       .  S
C137        N141   1.349       .  A
C137        C151   1.461       .  S
C137       C4269   1.472       .  S
C138        C157   1.432       .  S
C138        H142   1.082       .  S
N139        C150   1.359       .  A
N139       Co149   2.163       .  S
C143        N159   1.373       .  A
C143        C155   1.436       .  S
C143       C4306   1.494       .  S
Co145      Cl156   2.427       .  S
N146        C157   1.371       .  A
C147       C4296   1.473       .  S
Co149      Cl156   2.471       .  S
C157       C4256   1.483       .  S
C160        N178   1.345       .  A
C160        C197   1.462       .  S
C160       C4439   1.467   1_545  S
N161        N178   1.319       .  A
N161        N183   1.312       .  A
N161       Co198   2.057       .  S
C162        N187   1.332       .  A
C162        C200   1.449       .  S
C162        H207   1.083       .  S
H163        C204   1.080       .  S
C164        N188   1.365       .  A
C164        C168   1.497       .  S
C164        H193   1.082       .  S
Co165       N183   2.061       .  S
Co165       N173   2.051       .  S
Co165       N205   2.047       .  S
Co165       N181   2.058       .  S
Co165      Cl209   2.468       .  S
N166        C204   1.342       .  A
N166        N173   1.314       .  A
N166       Co167   2.076       .  S
Co167       N170   2.021       .  S
Co167       N187   2.051       .  S
Co167       N174   2.052       .  S
Co167      Cl209   2.422       .  S
C168        N206   1.330       .  A
C168       C4199   1.500       .  S
N169        N176   1.321       .  A
N169        N199   1.340       .  A
N169       Co202   2.168       .  S
N170        N188   1.321       .  A
N170        N206   1.311       .  A
N171        C200   1.348       .  A
N171        N181   1.320       .  A
H172        C197   1.081   1_565  S
N173        N194   1.316       .  A
N174        N192   1.324       .  A
N174        N179   1.316       .  A
C175        N179   1.336       .  A
C175        C203   1.498       .  S
C175       C4236   1.512       .  S
N176        C191   1.324       .  A
N176       Co198   2.034       .  S
C177        N205   1.334       .  A
C177        C180   1.455       .  S
C177        H211   1.081   1_545  S
C180        N201   1.346       .  A
C180       C4226   1.456       .  S
N181        N187   1.313       .  A
N182        C208   1.324       .  A
N182        N184   1.320       .  A
N182       Co198   2.028       .  S
N183        C197   1.338       .  A
N184        N212   1.342       .  A
N184       Co202   2.180       .  S
H185        C208   1.080       .  S
H186        C203   1.082       .  S
N188       Co202   2.174       .  S
N189        N201   1.318       .  A
N189        N205   1.313       .  A
N189       Co198   2.060       .  S
C190        N194   1.345       .  A
C190        C204   1.463       .  S
C190       C4349   1.467       .  S
C191        C210   1.437       .  S
C191        H195   1.081       .  S
N192        C203   1.366       .  A
N192       Co202   2.179       .  S
C196        N212   1.376       .  A
C196        C208   1.437       .  S
C196       C4216   1.503       .  S
Co198      Cl209   2.410       .  S
N199        C210   1.373       .  A
C200       C4246   1.457       .  S
Co202      Cl209   2.476       .  S
C210       C4206   1.496       .  S
C213        N231   1.344       .  A
C213        C250   1.459       .  S
C213       C4336   1.465       .  S
N214        N231   1.321       .  A
N214        N236   1.316       .  A
N214       Co251   2.057       .  S
C215        N240   1.335       .  A
C215        C253   1.454       .  S
C215        H260   1.073       .  S
H216        C257   1.077       .  S
C217        N241   1.363       .  A
C217        C221   1.495       .  S
C217        H246   1.082       .  S
Co218       N236   2.074       .  S
Co218       N226   2.055       .  S
Co218       N258   2.055       .  S
Co218       N234   2.080       .  S
Co218      Cl262   2.462       .  S
N219        C257   1.336       .  A
N219        N226   1.313       .  A
N219       Co220   2.067       .  S
Co220       N223   2.035       .  S
Co220       N240   2.054       .  S
Co220       N227   2.040       .  S
Co220      Cl262   2.417       .  S
C221        N259   1.334       .  A
C221       C4146   1.503       .  S
N222        N229   1.323       .  A
N222        N252   1.338       .  A
N222       Co255   2.167       .  S
N223        N241   1.321       .  A
N223        N259   1.315       .  A
N224        C253   1.354       .  A
N224        N234   1.323       .  A
H225        C250   1.081   1_556  S
N226        N247   1.319       .  A
N227        N245   1.322       .  A
N227        N232   1.315       .  A
C228        N232   1.334       .  A
C228        C256   1.499       .  S
C228       C4166   1.509       .  S
N229        C244   1.329       .  A
N229       Co251   2.039       .  S
C230        N258   1.334       .  A
C230        C233   1.458       .  S
C230        H264   1.081       .  S
C233        N254   1.346       .  A
C233       C4249   1.461       .  S
N234        N240   1.313       .  A
N235        C261   1.325       .  A
N235        N237   1.321       .  A
N235       Co251   2.020       .  S
N236        C250   1.339       .  A
N237        N265   1.343       .  A
N237       Co255   2.189       .  S
H238        C261   1.081       .  S
H239        C256   1.082       .  S
N241       Co255   2.170       .  S
N242        N254   1.320       .  A
N242        N258   1.314       .  A
N242       Co251   2.064       .  S
C243        N247   1.348       .  A
C243        C257   1.463       .  S
C243       C4299   1.475       .  S
C244        C263   1.436       .  S
C244        H248   1.082       .  S
N245        C256   1.365       .  A
N245       Co255   2.173       .  S
C249        N265   1.377       .  A
C249        C261   1.429       .  S
C249       C4186   1.495       .  S
Co251      Cl262   2.428       .  S
N252        C263   1.368       .  A
C253       C4176   1.471       .  S
Co255      Cl262   2.480       .  S
C263       C4156   1.484       .  S
C266        N284   1.349       .  A
C266        C303   1.461       .  S
C266       C4266   1.472       .  S
N267        N284   1.323       .  A
N267        N289   1.314       .  A
N267       Co304   2.071       .  S
C268        N293   1.334       .  A
C268        C306   1.451       .  S
C268        H313   1.081       .  S
H269        C310   1.080       .  S
C270        N294   1.363       .  A
C270        C274   1.497       .  S
C270        H299   1.081       .  S
Co271       N289   2.065       .  S
Co271       N279   2.065       .  S
Co271       N311   2.060       .  S
Co271       N287   2.061       .  S
Co271      Cl315   2.468       .  S
N272        C310   1.338       .  A
N272        N279   1.314       .  A
N272       Co273   2.063       .  S
Co273       N276   2.030       .  S
Co273       N293   2.050       .  S
Co273       N280   2.037       .  S
Co273      Cl315   2.421       .  S
C274        N312   1.330       .  A
C274       C4119   1.498       .  S
N275        N282   1.322       .  A
N275        N305   1.341       .  A
N275       Co308   2.169       .  S
N276        N294   1.322       .  A
N276        N312   1.312       .  A
N277        C306   1.346       .  A
N277        N287   1.320       .  A
H278        C303   1.080       .  S
N279        N300   1.320       .  A
N280        N298   1.322       .  A
N280        N285   1.316       .  A
C281        N285   1.334       .  A
C281        C309   1.491       .  S
C281       C4126   1.495       .  S
N282        C297   1.325       .  A
N282       Co304   2.029       .  S
C283        N311   1.335       .  A
C283        C286   1.456       .  S
C283        H317   1.081       .  S
C286        N307   1.348       .  A
C286       C4179   1.468       .  S
N287        N293   1.314       .  A
N288        C314   1.324       .  A
N288        N290   1.323       .  A
N288       Co304   2.037       .  S
N289        C303   1.336       .  A
N290        N318   1.341       .  A
N290       Co308   2.173       .  S
H291        C314   1.081       .  S
H292        C309   1.082       .  S
N294       Co308   2.167       .  S
N295        N307   1.324       .  A
N295        N311   1.313       .  A
N295       Co304   2.067       .  S
C296        N300   1.350       .  A
C296        C310   1.456       .  S
C296       C4419   1.471       .  S
C297        C316   1.428       .  S
C297        H301   1.082       .  S
N298        C309   1.363       .  A
N298       Co308   2.170       .  S
C302        N318   1.372       .  A
C302        C314   1.433       .  S
C302       C4136   1.491       .  S
Co304      Cl315   2.423       .  S
N305        C316   1.371       .  A
C306       C4229   1.451       .  S
Co308      Cl315   2.475       .  S
C316       C4106   1.482       .  S
C319        N337   1.343       .  A
C319        C356   1.454       .  S
C319       C4089   1.454       .  S
N320        N337   1.317       .  A
N320        N342   1.313       .  A
N320       Co357   2.042       .  S
C321        N346   1.363       .  A
C321        C359   1.493       .  S
C321        H366   1.081       .  S
H322        C363   1.082       .  S
C323        N347   1.325       .  A
C323        C327   1.436       .  S
C323        H352   1.081       .  S
Co324       N342   2.059       .  S
Co324       N332   2.032       .  S
Co324       N364   2.062       .  S
Co324       N340   2.033       .  S
Co324      Cl368   2.425       .  S
N325        C363   1.363       .  A
N325        N332   1.323       .  A
N325       Co326   2.178       .  S
Co326       N329   2.177       .  S
Co326       N346   2.172       .  S
Co326       N333   2.170       .  S
Co326      Cl368   2.471       .  S
C327        N365   1.374       .  A
C327       C4066   1.499       .  S
N328        N335   1.313       .  A
N328        N358   1.320       .  A
N328       Co361   2.065       .  S
N329        N347   1.321       .  A
N329        N365   1.342       .  A
N330        C359   1.333       .  A
N330        N340   1.316       .  A
H331        C356   1.077       .  S
N332        N353   1.314       .  A
N333        N351   1.322       .  A
N333        N338   1.341       .  A
C334        N338   1.373       .  A
C334        C362   1.436       .  S
C334       C4026   1.495       .  S
N335        C350   1.337       .  A
N335       Co357   2.061       .  S
C336        N364   1.337       .  A
C336        C339   1.461       .  S
C336        H370   1.081       .  S
C339        N360   1.349       .  A
C339       C4036   1.468       .  S
N340        N346   1.322       .  A
N341        C367   1.334       .  A
N341        N343   1.312       .  A
N341       Co357   2.048       .  S
N342        C356   1.336       .  A
N343        N371   1.320       .  A
N343       Co361   2.063       .  S
H344        C367   1.082       .  S
H345        C362   1.081       .  S
N347       Co361   2.032       .  S
N348        N360   1.318       .  A
N348        N364   1.313       .  A
N348       Co357   2.062       .  S
C349        N353   1.332       .  A
C349        C363   1.497       .  S
C349       C4099   1.501       .  S
C350        C369   1.460       .  S
C350        H354   1.081       .  S
N351        C362   1.325       .  A
N351       Co361   2.037       .  S
C355        N371   1.347       .  A
C355        C367   1.458       .  S
C355       C4059   1.463       .  S
Co357      Cl368   2.466       .  S
N358        C369   1.348       .  A
C359       C4046   1.494       .  S
Co361      Cl368   2.416       .  S
C369       C4076   1.469       .  S
C372        N390   1.344       .  A
C372        C409   1.457       .  S
C372       C4086   1.458       .  S
N373        N390   1.318       .  A
N373        N395   1.314       .  A
N373       Co410   2.050       .  S
C374        N399   1.333       .  A
C374        C412   1.455       .  S
C374        H419   1.079       .  S
H375        C416   1.081       .  S
C376        N400   1.360       .  A
C376        C380   1.489       .  S
C376        H405   1.081       .  S
Co377       N395   2.054       .  S
Co377       N385   2.072       .  S
Co377       N417   2.065       .  S
Co377       N393   2.066       .  S
Co377      Cl421   2.460       .  S
N378        C416   1.340       .  A
N378        N385   1.316       .  A
N378       Co379   2.076       .  S
Co379       N382   2.023       .  S
Co379       N399   2.050       .  S
Co379       N386   2.030       .  S
Co379      Cl421   2.423       .  S
C380        N418   1.330       .  A
C380       C3956   1.482       .  S
N381        N388   1.323       .  A
N381        N411   1.342       .  A
N381       Co414   2.181       .  S
N382        N400   1.323       .  A
N382        N418   1.315       .  A
N383        C412   1.353       .  A
N383        N393   1.321       .  A
H384        C409   1.080       .  S
N385        N406   1.321       .  A
N386        N404   1.323       .  A
N386        N391   1.313       .  A
C387        N391   1.330       .  A
C387        C415   1.493       .  S
C387       C3969   1.492       .  S
N388        C403   1.330       .  A
N388       Co410   2.042       .  S
C389        N417   1.337       .  A
C389        C392   1.460       .  S
C389        H423   1.080       .  S
C392        N413   1.345       .  A
C392       C3996   1.463       .  S
N393        N399   1.311       .  A
N394        C420   1.328       .  A
N394        N396   1.319       .  A
N394       Co410   2.030       .  S
N395        C409   1.334       .  A
N396        N424   1.340       .  A
N396       Co414   2.169       .  S
H397        C420   1.082       .  S
H398        C415   1.082       .  S
N400       Co414   2.168       .  S
N401        N413   1.319       .  A
N401        N417   1.316       .  A
N401       Co410   2.062       .  S
C402        N406   1.349       .  A
C402        C416   1.462       .  S
C402       C3986   1.473       .  S
C403        C422   1.437       .  S
C403        H407   1.080       .  S
N404        C415   1.364       .  A
N404       Co414   2.170       .  S
C408        N424   1.372       .  A
C408        C420   1.432       .  S
C408       C4006   1.487       .  S
Co410      Cl421   2.422       .  S
N411        C422   1.372       .  A
C412       C3976   1.471       .  S
Co414      Cl421   2.478       .  S
C422       C4016   1.495       .  S
C425        N443   1.345       .  A
C425        C462   1.464       .  S
C425       C3906   1.469       .  S
N426        N443   1.317       .  A
N426        N448   1.314       .  A
N426       Co463   2.059       .  S
C427        N452   1.338       .  A
C427        C465   1.455       .  S
C427        H472   1.081       .  S
H428        C469   1.080       .  S
C429        N453   1.363       .  A
C429        C433   1.493       .  S
C429        H458   1.081       .  S
Co430       N448   2.065       .  S
Co430       N438   2.060       .  S
Co430       N470   2.059       .  S
Co430       N446   2.058       .  S
Co430      Cl474   2.472       .  S
N431        C469   1.339       .  A
N431        N438   1.314       .  A
N431       Co432   2.061       .  S
Co432       N435   2.035       .  S
Co432       N452   2.066       .  S
Co432       N439   2.024       .  S
Co432      Cl474   2.427       .  S
C433        N471   1.333       .  A
C433       C3896   1.497       .  S
N434        N441   1.321       .  A
N434        N464   1.339       .  A
N434       Co467   2.165       .  S
N435        N453   1.323       .  A
N435        N471   1.315       .  A
N436        C465   1.346       .  A
N436        N446   1.318       .  A
H437        C462   1.081       .  S
N438        N459   1.319       .  A
N439        N457   1.322       .  A
N439        N444   1.312       .  A
C440        N444   1.329       .  A
C440        C468   1.497       .  S
C440       C3946   1.496       .  S
N441        C456   1.331       .  A
N441       Co463   2.045       .  S
C442        N470   1.338       .  A
C442        C445   1.459       .  S
C442        H476   1.082       .  S
C445        N466   1.348       .  A
C445       C3936   1.469       .  S
N446        N452   1.315       .  A
N447        C473   1.325       .  A
N447        N449   1.321       .  A
N447       Co463   2.037       .  S
N448        C462   1.340       .  A
N449        N477   1.341       .  A
N449       Co467   2.173       .  S
H450        C473   1.080       .  S
H451        C468   1.082       .  S
N453       Co467   2.174       .  S
N454        N466   1.322       .  A
N454        N470   1.313       .  A
N454       Co463   2.068       .  S
C455        N459   1.346       .  A
C455        C469   1.455       .  S
C455       C4039   1.463       .  S
C456        C475   1.440       .  S
C456        H460   1.081       .  S
N457        C468   1.366       .  A
N457       Co467   2.180       .  S
C461        N477   1.375       .  A
C461        C473   1.441       .  S
C461       C3926   1.503       .  S
Co463      Cl474   2.413       .  S
N464        C475   1.371       .  A
C465       C3999   1.456       .  S
Co467      Cl474   2.473       .  S
C475       C3916   1.496       .  S
C478        N496   1.350       .  A
C478        C515   1.459       .  S
C478       C3989   1.474   1_455  S
N479        N496   1.325       .  A
N479        N501   1.317       .  A
N479       Co516   2.075       .  S
C480        N505   1.337       .  A
C480        C518   1.456       .  S
C480        H525   1.074       .  S
H481        C522   1.081       .  S
C482        N506   1.364       .  A
C482        C486   1.498       .  S
C482        H511   1.081       .  S
Co483       N501   2.074       .  S
Co483       N491   2.063       .  S
Co483       N523   2.059       .  S
Co483       N499   2.073       .  S
Co483      Cl527   2.464       .  S
N484        C522   1.335       .  A
N484        N491   1.315       .  A
N484       Co485   2.055       .  S
Co485       N488   2.049       .  S
Co485       N505   2.067       .  S
Co485       N492   2.028       .  S
Co485      Cl527   2.420       .  S
C486        N524   1.338       .  A
C486       C3836   1.513       .  S
N487        N494   1.323       .  A
N487        N517   1.338       .  A
N487       Co520   2.169       .  S
N488        N506   1.324       .  A
N488        N524   1.319       .  A
N489        C518   1.351       .  A
N489        N499   1.322       .  A
H490        C515   1.082   1_655  S
N491        N512   1.321       .  A
N492        N510   1.319       .  A
N492        N497   1.310       .  A
C493        N497   1.330       .  A
C493        C521   1.500       .  S
C493       C3856   1.506       .  S
N494        C509   1.330       .  A
N494       Co516   2.039       .  S
C495        N523   1.336       .  A
C495        C498   1.461       .  S
C495        H529   1.081   1_455  S
C498        N519   1.348       .  A
C498       C3886   1.469       .  S
N499        N505   1.314       .  A
N500        C526   1.323       .  A
N500        N502   1.323       .  A
N500       Co516   2.026       .  S
N501        C515   1.337       .  A
N502        N530   1.341       .  A
N502       Co520   2.177       .  S
H503        C526   1.081       .  S
H504        C521   1.082       .  S
N506       Co520   2.183       .  S
N507        N519   1.321       .  A
N507        N523   1.313       .  A
N507       Co516   2.068       .  S
C508        N512   1.348       .  A
C508        C522   1.454       .  S
C508       C4079   1.463   1_455  S
C509        C528   1.438       .  S
C509        H513   1.082       .  S
N510        C521   1.368       .  A
N510       Co520   2.169       .  S
C514        N530   1.373       .  A
C514        C526   1.425       .  S
C514       C3876   1.482       .  S
Co516      Cl527   2.427       .  S
N517        C528   1.370       .  A
C518       C3869   1.469       .  S
Co520      Cl527   2.486       .  S
C528       C3846   1.490       .  S
C531        N549   1.345       .  A
C531        C568   1.461       .  S
C531       C3939   1.468       .  S
N532        N549   1.321       .  A
N532        N554   1.314       .  A
N532       Co569   2.064       .  S
C533        N558   1.339       .  A
C533        C571   1.455       .  S
C533        H578   1.082       .  S
H534        C575   1.080       .  S
C535        N559   1.364       .  A
C535        C539   1.494       .  S
C535        H564   1.082       .  S
Co536       N554   2.073       .  S
Co536       N544   2.050       .  S
Co536       N576   2.055       .  S
Co536       N552   2.065       .  S
Co536      Cl580   2.460       .  S
N537        C575   1.344       .  A
N537        N544   1.315       .  A
N537       Co538   2.075       .  S
Co538       N541   2.031       .  S
Co538       N558   2.064       .  S
Co538       N545   2.040       .  S
Co538      Cl580   2.439       .  S
C539        N577   1.332       .  A
C539       C3786   1.496       .  S
N540        N547   1.320       .  A
N540        N570   1.341       .  A
N540       Co573   2.166       .  S
N541        N559   1.323       .  A
N541        N577   1.315       .  A
N542        C571   1.347       .  A
N542        N552   1.319       .  A
H543        C568   1.082       .  S
N544        N565   1.315       .  A
N545        N563   1.324       .  A
N545        N550   1.315       .  A
C546        N550   1.333       .  A
C546        C574   1.491       .  S
C546       C3826   1.491       .  S
N547        C562   1.324       .  A
N547       Co569   2.036       .  S
C548        N576   1.335       .  A
C548        C551   1.458       .  S
C548        H582   1.081       .  S
C551        N572   1.348       .  A
C551       C3816   1.467       .  S
N552        N558   1.315       .  A
N553        C579   1.328       .  A
N553        N555   1.321       .  A
N553       Co569   2.040       .  S
N554        C568   1.341       .  A
N555        N583   1.341       .  A
N555       Co573   2.174       .  S
H556        C579   1.080       .  S
H557        C574   1.081       .  S
N559       Co573   2.180       .  S
N560        N572   1.321       .  A
N560        N576   1.313       .  A
N560       Co569   2.063       .  S
C561        N565   1.343       .  A
C561        C575   1.463       .  S
C561       C3979   1.466       .  S
C562        C581   1.436       .  S
C562        H566   1.081       .  S
N563        C574   1.363       .  A
N563       Co573   2.170       .  S
C567        N583   1.374       .  A
C567        C579   1.440       .  S
C567       C3809   1.502       .  S
Co569      Cl580   2.426       .  S
N570        C581   1.373       .  A
C571       C3889   1.461       .  S
Co573      Cl580   2.464       .  S
C581       C3796   1.495       .  S
C584        N602   1.343       .  A
C584        C621   1.455       .  S
C584       C4056   1.456       .  S
N585        N602   1.320       .  A
N585        N607   1.315       .  A
N585       Co622   2.054       .  S
C586        N611   1.336       .  A
C586        C624   1.456       .  S
C586        H631   1.078       .  S
H587        C628   1.081       .  S
C588        N612   1.359       .  A
C588        C592   1.489       .  S
C588        H617   1.082       .  S
Co589       N607   2.064       .  S
Co589       N597   2.058       .  S
Co589       N629   2.062       .  S
Co589       N605   2.070       .  S
Co589      Cl633   2.460       .  S
N590        C628   1.336       .  A
N590        N597   1.314       .  A
N590       Co591   2.066       .  S
Co591       N594   2.041       .  S
Co591       N611   2.063       .  S
Co591       N598   2.040       .  S
Co591      Cl633   2.421       .  S
C592        N630   1.336       .  A
C592       C3746   1.495       .  S
N593        N600   1.322       .  A
N593        N623   1.339       .  A
N593       Co626   2.163       .  S
N594        N612   1.323       .  A
N594        N630   1.318       .  A
N595        C624   1.350       .  A
N595        N605   1.321       .  A
H596        C621   1.081       .  S
N597        N618   1.320       .  A
N598        N616   1.322       .  A
N598        N603   1.315       .  A
C599        N603   1.334       .  A
C599        C627   1.494       .  S
C599       C3776   1.502       .  S
N600        C615   1.327       .  A
N600       Co622   2.036       .  S
C601        N629   1.335       .  A
C601        C604   1.457       .  S
C601        H635   1.081       .  S
C604        N625   1.348       .  A
C604       C3866   1.466       .  S
N605        N611   1.314       .  A
N606        C632   1.325       .  A
N606        N608   1.321       .  A
N606       Co622   2.022       .  S
N607        C621   1.337       .  A
N608        N636   1.341       .  A
N608       Co626   2.178       .  S
H609        C632   1.082       .  S
H610        C627   1.082       .  S
N612       Co626   2.163       .  S
N613        N625   1.323       .  A
N613        N629   1.315       .  A
N613       Co622   2.069       .  S
C614        N618   1.346       .  A
C614        C628   1.458       .  S
C614       C3909   1.466       .  S
C615        C634   1.433       .  S
C615        H619   1.082       .  S
N616        C627   1.360       .  A
N616       Co626   2.160       .  S
C620        N636   1.374       .  A
C620        C632   1.428       .  S
C620       C3766   1.485       .  S
Co622      Cl633   2.427       .  S
N623        C634   1.369       .  A
C624       C3819   1.467       .  S
Co626      Cl633   2.478       .  S
C634       C3756   1.483       .  S
C637        N655   1.371       .  A
C637        C674   1.434       .  S
C637       C3736   1.488       .  S
N638        N655   1.340       .  A
N638        N660   1.323       .  A
N638       Co675   2.174       .  S
C639        N664   1.333       .  A
C639        C677   1.459       .  S
C639        H684   1.080       .  S
H640        C681   1.080       .  S
C641        N665   1.335       .  A
C641        C645   1.456       .  S
C641        H670   1.079       .  S
Co642       N660   2.035       .  S
Co642       N650   2.078       .  S
Co642       N682   2.050       .  S
Co642       N658   2.069       .  S
Co642      Cl686   2.431       .  S
N643        C681   1.337       .  A
N643        N650   1.315       .  A
N643       Co644   2.062       .  S
Co644       N647   2.067       .  S
Co644       N664   2.065       .  S
Co644       N651   2.069       .  S
Co644      Cl686   2.468       .  S
C645        N683   1.351       .  A
C645       C3686   1.469       .  S
N646        N653   1.321       .  A
N646        N676   1.317       .  A
N646       Co679   2.040       .  S
N647        N665   1.313       .  A
N647        N683   1.319       .  A
N648        C677   1.349       .  A
N648        N658   1.323       .  A
H649        C674   1.081       .  S
N650        N671   1.324       .  A
N651        N669   1.313       .  A
N651        N656   1.322       .  A
C652        N656   1.352       .  A
C652        C680   1.459       .  S
C652       C3696   1.475       .  S
N653        C668   1.361       .  A
N653       Co675   2.164       .  S
C654        N682   1.331       .  A
C654        C657   1.439       .  S
C654        H688   1.083       .  S
C657        N678   1.369       .  A
C657       C3716   1.488       .  S
N658        N664   1.316       .  A
N659        C685   1.365       .  A
N659        N661   1.321       .  A
N659       Co675   2.175       .  S
N660        C674   1.327       .  A
N661        N689   1.313       .  A
N661       Co679   2.032       .  S
H662        C685   1.082       .  S
H663        C680   1.079       .  S
N665       Co679   2.053       .  S
N666        N678   1.339       .  A
N666        N682   1.323       .  A
N666       Co675   2.165       .  S
C667        N671   1.349       .  A
C667        C681   1.456       .  S
C667       C3726   1.470       .  S
C668        C687   1.492       .  S
C668        H672   1.082       .  S
N669        C680   1.335       .  A
N669       Co679   2.063       .  S
C673        N689   1.332       .  A
C673        C685   1.499       .  S
C673       C3676   1.507       .  S
Co675      Cl686   2.470       .  S
N676        C687   1.335       .  A
C677       C3706   1.469       .  S
Co679      Cl686   2.423       .  S
C687       C3666   1.499       .  S
C690        N708   1.348       .  A
C690        C727   1.457       .  S
C690       C3709   1.467       .  S
N691        N708   1.325       .  A
N691        N713   1.315       .  A
N691       Co728   2.068       .  S
C692        N717   1.332       .  A
C692        C730   1.458       .  S
C692        H737   1.078       .  S
H693        C734   1.080       .  S
C694        N718   1.365       .  A
C694        C698   1.500       .  S
C694        H723   1.081       .  S
Co695       N713   2.061       .  S
Co695       N703   2.069       .  S
Co695       N735   2.065       .  S
Co695       N711   2.062       .  S
Co695      Cl739   2.473       .  S
N696        C734   1.334       .  A
N696        N703   1.314       .  A
N696       Co697   2.061       .  S
Co697       N700   2.033       .  S
Co697       N717   2.054       .  S
Co697       N704   2.045       .  S
Co697      Cl739   2.416       .  S
C698        N736   1.333       .  A
C698       C3636   1.508       .  S
N699        N706   1.322       .  A
N699        N729   1.342       .  A
N699       Co732   2.177       .  S
N700        N718   1.322       .  A
N700        N736   1.314       .  A
N701        C730   1.351       .  A
N701        N711   1.320       .  A
H702        C727   1.080       .  S
N703        N724   1.323       .  A
N704        N722   1.321       .  A
N704        N709   1.318       .  A
C705        N709   1.336       .  A
C705        C733   1.496       .  S
C705       C3626   1.509       .  S
N706        C721   1.323       .  A
N706       Co728   2.028       .  S
C707        N735   1.336       .  A
C707        C710   1.457       .  S
C707        H741   1.081       .  S
C710        N731   1.348       .  A
C710       C3606   1.469       .  S
N711        N717   1.313       .  A
N712        C738   1.324       .  A
N712        N714   1.323       .  A
N712       Co728   2.031       .  S
N713        C727   1.333       .  A
N714        N742   1.342       .  A
N714       Co732   2.179       .  S
H715        C738   1.081       .  S
H716        C733   1.082       .  S
N718       Co732   2.178       .  S
N719        N731   1.324       .  A
N719        N735   1.314       .  A
N719       Co728   2.069       .  S
C720        N724   1.351       .  A
C720        C734   1.455       .  S
C720       C3646   1.468       .  S
C721        C740   1.431       .  S
C721        H725   1.081       .  S
N722        C733   1.362       .  A
N722       Co732   2.170       .  S
C726        N742   1.373       .  A
C726        C738   1.433       .  S
C726       C3596   1.491       .  S
Co728      Cl739   2.425       .  S
N729        C740   1.374       .  A
C730       C3616   1.471       .  S
Co732      Cl739   2.476       .  S
C740       C3656   1.492       .  S
C743        N761   1.350       .  A
C743        C780   1.459       .  S
C743       C3576   1.472       .  S
N744        N761   1.323       .  A
N744        N766   1.315       .  A
N744       Co781   2.074       .  S
C745        N770   1.339       .  A
C745        C783   1.458       .  S
C745        H790   1.081       .  S
H746        C787   1.081       .  S
C747        N771   1.363       .  A
C747        C751   1.497       .  S
C747        H776   1.081       .  S
Co748       N766   2.063       .  S
Co748       N756   2.072       .  S
Co748       N788   2.068       .  S
Co748       N764   2.067       .  S
Co748      Cl792   2.460       .  S
N749        C787   1.338       .  A
N749        N756   1.315       .  A
N749       Co750   2.067       .  S
Co750       N753   2.033       .  S
Co750       N770   2.065       .  S
Co750       N757   2.046       .  S
Co750      Cl792   2.438       .  S
C751        N789   1.333       .  A
C751       C3586   1.504       .  S
N752        N759   1.324       .  A
N752        N782   1.338       .  A
N752       Co785   2.167       .  S
N753        N771   1.321       .  A
N753        N789   1.314       .  A
N754        C783   1.348       .  A
N754        N764   1.320       .  A
H755        C780   1.081       .  S
N756        N777   1.322       .  A
N757        N775   1.323       .  A
N757        N762   1.319       .  A
C758        N762   1.336       .  A
C758        C786   1.490       .  S
C758       C3556   1.496       .  S
N759        C774   1.331       .  A
N759       Co781   2.048       .  S
C760        N788   1.337       .  A
C760        C763   1.461       .  S
C760        H794   1.081       .  S
C763        N784   1.350       .  A
C763       C3536   1.474       .  S
N764        N770   1.314       .  A
N765        C791   1.329       .  A
N765        N767   1.322       .  A
N765       Co781   2.039       .  S
N766        C780   1.336       .  A
N767        N795   1.339       .  A
N767       Co785   2.166       .  S
H768        C791   1.082       .  S
H769        C786   1.081       .  S
N771       Co785   2.170       .  S
N772        N784   1.323       .  A
N772        N788   1.315       .  A
N772       Co781   2.075       .  S
C773        N777   1.350       .  A
C773        C787   1.457       .  S
C773       C3729   1.468       .  S
C774        C793   1.438       .  S
C774        H778   1.082       .  S
N775        C786   1.361       .  A
N775       Co785   2.167       .  S
C779        N795   1.370       .  A
C779        C791   1.436       .  S
C779       C3549   1.487       .  S
Co781      Cl792   2.438       .  S
N782        C793   1.368       .  A
C783       C3609   1.467       .  S
Co785      Cl792   2.461       .  S
C793       C3566   1.486       .  S
C796        N814   1.350       .  A
C796        C833   1.454       .  S
C796       C3649   1.466   1_455  S
N797        N814   1.323       .  A
N797        N819   1.315       .  A
N797       Co834   2.071       .  S
C798        N823   1.342       .  A
C798        C836   1.461       .  S
C798        H843   1.079       .  S
H799        C840   1.079       .  S
C800        N824   1.365       .  A
C800        C804   1.496       .  S
C800        H829   1.081       .  S
Co801       N819   2.058       .  S
Co801       N809   2.055       .  S
Co801       N841   2.054       .  S
Co801       N817   2.058       .  S
Co801      Cl845   2.457       .  S
N802        C840   1.339       .  A
N802        N809   1.314       .  A
N802       Co803   2.068       .  S
Co803       N806   2.045       .  S
Co803       N823   2.069       .  S
Co803       N810   2.041       .  S
Co803      Cl845   2.436       .  S
C804        N842   1.335       .  A
C804       C3476   1.503       .  S
N805        N812   1.324       .  A
N805        N835   1.338       .  A
N805       Co838   2.166       .  S
N806        N824   1.324       .  A
N806        N842   1.317       .  A
N807        C836   1.345       .  A
N807        N817   1.317       .  A
H808        C833   1.081   1_655  S
N809        N830   1.318       .  A
N810        N828   1.323       .  A
N810        N815   1.314       .  A
C811        N815   1.333       .  A
C811        C839   1.489       .  S
C811       C3496   1.490       .  S
N812        C827   1.330       .  A
N812       Co834   2.042       .  S
C813        N841   1.334       .  A
C813        C816   1.458       .  S
C813        H847   1.081   1_455  S
C816        N837   1.349       .  A
C816       C3526   1.470       .  S
N817        N823   1.314       .  A
N818        C844   1.322       .  A
N818        N820   1.322       .  A
N818       Co834   2.031       .  S
N819        C833   1.334       .  A
N820        N848   1.342       .  A
N820       Co838   2.175       .  S
H821        C844   1.081       .  S
H822        C839   1.082       .  S
N824       Co838   2.182       .  S
N825        N837   1.323       .  A
N825        N841   1.313       .  A
N825       Co834   2.072       .  S
C826        N830   1.345       .  A
C826        C840   1.461       .  S
C826       C3699   1.468       .  S
C827        C846   1.437       .  S
C827        H831   1.082       .  S
N828        C839   1.363       .  A
N828       Co838   2.161       .  S
C832        N848   1.374       .  A
C832        C844   1.434       .  S
C832       C3519   1.495       .  S
Co834      Cl845   2.432       .  S
N835        C846   1.369       .  A
C836       C3509   1.466       .  S
Co838      Cl845   2.468       .  S
C846       C3489   1.487       .  S
C849        N867   1.350       .  A
C849        C886   1.458       .  S
C849       C3689   1.471   1_545  S
N850        N867   1.322       .  A
N850        N872   1.313       .  A
N850       Co887   2.070       .  S
C851        N876   1.341       .  A
C851        C889   1.460       .  S
C851        H896   1.079       .  S
H852        C893   1.080       .  S
C853        N877   1.365       .  A
C853        C857   1.496       .  S
C853        H882   1.082       .  S
Co854       N872   2.048       .  S
Co854       N862   2.068       .  S
Co854       N894   2.065       .  S
Co854       N870   2.052       .  S
Co854      Cl898   2.460       .  S
N855        C893   1.339       .  A
N855        N862   1.315       .  A
N855       Co856   2.069       .  S
Co856       N859   2.034       .  S
Co856       N876   2.068       .  S
Co856       N863   2.033       .  S
Co856      Cl898   2.426       .  S
C857        N895   1.333       .  A
C857       C3436   1.500       .  S
N858        N865   1.321       .  A
N858        N888   1.339       .  A
N858       Co891   2.173       .  S
N859        N877   1.324       .  A
N859        N895   1.315       .  A
N860        C889   1.345       .  A
N860        N870   1.316       .  A
H861        C886   1.079   1_565  S
N862        N883   1.322       .  A
N863        N881   1.323       .  A
N863        N868   1.313       .  A
C864        N868   1.331       .  A
C864        C892   1.496       .  S
C864       C3456   1.500       .  S
N865        C880   1.327       .  A
N865       Co887   2.033       .  S
C866        N894   1.339       .  A
C866        C869   1.465       .  S
C866        H900   1.080   1_545  S
C869        N890   1.345       .  A
C869       C3506   1.471       .  S
N870        N876   1.314       .  A
N871        C897   1.326       .  A
N871        N873   1.320       .  A
N871       Co887   2.037       .  S
N872        C886   1.332       .  A
N873        N901   1.341       .  A
N873       Co891   2.172       .  S
H874        C897   1.080       .  S
H875        C892   1.082       .  S
N877       Co891   2.182       .  S
N878        N890   1.319       .  A
N878        N894   1.313       .  A
N878       Co887   2.058       .  S
C879        N883   1.348       .  A
C879        C893   1.457       .  S
C879       C3579   1.467       .  S
C880        C899   1.441       .  S
C880        H884   1.080       .  S
N881        C892   1.365       .  A
N881       Co891   2.175       .  S
C885        N901   1.374       .  A
C885        C897   1.438       .  S
C885       C3446   1.500       .  S
Co887      Cl898   2.413       .  S
N888        C899   1.373       .  A
C889       C3466   1.462       .  S
Co891      Cl898   2.486       .  S
C899       C3426   1.500       .  S
C902        N920   1.350       .  A
C902        C939   1.456       .  S
C902       C3539   1.472       .  S
N903        N920   1.325       .  A
N903        N925   1.315       .  A
N903       Co940   2.077       .  S
C904        N929   1.338       .  A
C904        C942   1.454       .  S
C904        H949   1.078       .  S
H905        C946   1.078       .  S
C906        N930   1.364       .  A
C906        C910   1.493       .  S
C906        H935   1.082       .  S
Co907       N925   2.065       .  S
Co907       N915   2.053       .  S
Co907       N947   2.056       .  S
Co907       N923   2.068       .  S
Co907      Cl951   2.458       .  S
N908        C946   1.338       .  A
N908        N915   1.313       .  A
N908       Co909   2.068       .  S
Co909       N912   2.030       .  S
Co909       N929   2.059       .  S
Co909       N916   2.045       .  S
Co909      Cl951   2.425       .  S
C910        N948   1.332       .  A
C910       C3386   1.494       .  S
N911        N918   1.323       .  A
N911        N941   1.341       .  A
N911       Co944   2.184       .  S
N912        N930   1.322       .  A
N912        N948   1.314       .  A
N913        C942   1.349       .  A
N913        N923   1.320       .  A
H914        C939   1.081       .  S
N915        N936   1.317       .  A
N916        N934   1.322       .  A
N916        N921   1.316       .  A
C917        N921   1.335       .  A
C917        C945   1.501       .  S
C917       C3406   1.515       .  S
N918        C933   1.328       .  A
N918       Co940   2.032       .  S
C919        N947   1.335       .  A
C919        C922   1.460       .  S
C919        H953   1.081       .  S
C922        N943   1.346       .  A
C922       C3469   1.465       .  S
N923        N929   1.314       .  A
N924        C950   1.328       .  A
N924        N926   1.322       .  A
N924       Co940   2.036       .  S
N925        C939   1.336       .  A
N926        N954   1.341       .  A
N926       Co944   2.177       .  S
H927        C950   1.082       .  S
H928        C945   1.082       .  S
N930       Co944   2.171       .  S
N931        N943   1.320       .  A
N931        N947   1.314       .  A
N931       Co940   2.062       .  S
C932        N936   1.346       .  A
C932        C946   1.463       .  S
C932       C3619   1.470       .  S
C933        C952   1.433       .  S
C933        H937   1.082       .  S
N934        C945   1.367       .  A
N934       Co944   2.179       .  S
C938        N954   1.373       .  A
C938        C950   1.433       .  S
C938       C3416   1.493       .  S
Co940      Cl951   2.431       .  S
N941        C952   1.373       .  A
C942       C3529   1.465       .  S
Co944      Cl951   2.478       .  S
C952       C3396   1.491       .  S
C955        N973   1.372       .  A
C955        C992   1.429       .  S
C955       C3499   1.484       .  S
N956        N973   1.340       .  A
N956        N978   1.323       .  A
N956       Co993   2.173       .  S
C957        N982   1.334       .  A
C957        C995   1.461       .  S
C957       H1002   1.082       .  S
H958        C999   1.082       .  S
C959        N983   1.339       .  A
C959        C963   1.466       .  S
C959        H988   1.079       .  S
Co960       N978   2.033       .  S
Co960       N968   2.067       .  S
Co960      N1000   2.028       .  S
Co960       N976   2.060       .  S
Co960     Cl1004   2.427       .  S
N961        C999   1.332       .  A
N961        N968   1.314       .  A
N961       Co962   2.060       .  S
Co962       N965   2.063       .  S
Co962       N982   2.061       .  S
Co962       N969   2.058       .  S
Co962     Cl1004   2.457       .  S
C963       N1001   1.348       .  A
C963       C3366   1.475       .  S
N964        N971   1.322       .  A
N964        N994   1.315       .  A
N964       Co997   2.035       .  S
N965        N983   1.314       .  A
N965       N1001   1.318       .  A
N966        C995   1.348       .  A
N966        N976   1.321       .  A
H967        C992   1.081       .  S
N968        N989   1.325       .  A
N969        N987   1.313       .  A
N969        N974   1.318       .  A
C970        N974   1.348       .  A
C970        C998   1.461       .  S
C970       C3349   1.470       .  S
N971        C986   1.364       .  A
N971       Co993   2.174       .  S
C972       N1000   1.323       .  A
C972        C975   1.435       .  S
C972       H1006   1.081       .  S
C975        N996   1.374       .  A
C975       C3336   1.497       .  S
N976        N982   1.313       .  A
N977       C1003   1.361       .  A
N977        N979   1.324       .  A
N977       Co993   2.164       .  S
N978        C992   1.325       .  A
N979       N1007   1.316       .  A
N979       Co997   2.050       .  S
H980       C1003   1.082       .  S
H981        C998   1.076       .  S
N983       Co997   2.071       .  S
N984        N996   1.342       .  A
N984       N1000   1.320       .  A
N984       Co993   2.174       .  S
C985        N989   1.349       .  A
C985        C999   1.458       .  S
C985       C3376   1.470       .  S
C986       C1005   1.498       .  S
C986        H990   1.081       .  S
N987        C998   1.339       .  A
N987       Co997   2.064       .  S
C991       N1007   1.336       .  A
C991       C1003   1.492       .  S
C991       C3329   1.502       .  S
Co993     Cl1004   2.472       .  S
N994       C1005   1.334       .  A
C995       C3359   1.468       .  S
Co997     Cl1004   2.429       .  S
C1005      C3449   1.507       .  S
C1008      N1026   1.372       .  A
C1008      C1045   1.436       .  S
C1008      C3569   1.495       .  S
N1009      N1026   1.341       .  A
N1009      N1031   1.323       .  A
N1009     Co1046   2.177       .  S
C1010      N1035   1.339       .  A
C1010      C1048   1.463       .  S
C1010      H1055   1.081       .  S
H1011      C1052   1.081       .  S
C1012      N1036   1.336       .  A
C1012      C1016   1.456       .  S
C1012      H1041   1.080       .  S
Co1013     N1031   2.037       .  S
Co1013     N1021   2.075       .  S
Co1013     N1053   2.044       .  S
Co1013     N1029   2.065       .  S
Co1013    Cl1057   2.426       .  S
N1014      C1052   1.331       .  A
N1014      N1021   1.313       .  A
N1014     Co1015   2.045       .  S
Co1015     N1018   2.069       .  S
Co1015     N1035   2.070       .  S
Co1015     N1022   2.048       .  S
Co1015    Cl1057   2.463       .  S
C1016      N1054   1.349       .  A
C1016      C3296   1.467       .  S
N1017      N1024   1.322       .  A
N1017      N1047   1.315       .  A
N1017     Co1050   2.036       .  S
N1018      N1036   1.314       .  A
N1018      N1054   1.321       .  A
N1019      C1048   1.346       .  A
N1019      N1029   1.320       .  A
H1020      C1045   1.080       .  S
N1021      N1042   1.324       .  A
N1022      N1040   1.312       .  A
N1022      N1027   1.316       .  A
C1023      N1027   1.345       .  A
C1023      C1051   1.461       .  S
C1023      C3286   1.467       .  S
N1024      C1039   1.364       .  A
N1024     Co1046   2.171       .  S
C1025      N1053   1.327       .  A
C1025      C1028   1.438       .  S
C1025      H1059   1.081       .  S
C1028      N1049   1.374       .  A
C1028      C3276   1.503       .  S
N1029      N1035   1.315       .  A
N1030      C1056   1.365       .  A
N1030      N1032   1.324       .  A
N1030     Co1046   2.179       .  S
N1031      C1045   1.326       .  A
N1032      N1060   1.313       .  A
N1032     Co1050   2.030       .  S
H1033      C1056   1.081       .  S
H1034      C1051   1.078       .  S
N1036     Co1050   2.059       .  S
N1037      N1049   1.343       .  A
N1037      N1053   1.322       .  A
N1037     Co1046   2.177       .  S
C1038      N1042   1.352       .  A
C1038      C1052   1.453       .  S
C1038      C3319   1.467       .  S
C1039      C1058   1.494       .  S
C1039      H1043   1.082       .  S
N1040      C1051   1.341       .  A
N1040     Co1050   2.067       .  S
C1044      N1060   1.332       .  A
C1044      C1056   1.495       .  S
C1044      C3266   1.497       .  S
Co1046    Cl1057   2.472       .  S
N1047      C1058   1.332       .  A
C1048      C3306   1.470       .  S
Co1050    Cl1057   2.429       .  S
C1058      C3439   1.494       .  S
C1061      N1079   1.348       .  A
C1061      C1098   1.452       .  S
C1061      C3236   1.460       .  S
N1062      N1079   1.322       .  A
N1062      N1084   1.315       .  A
N1062     Co1099   2.069       .  S
C1063      N1088   1.366       .  A
C1063      C1101   1.501       .  S
C1063      H1108   1.082       .  S
H1064      C1105   1.081       .  S
C1065      N1089   1.324       .  A
C1065      C1069   1.433       .  S
C1065      H1094   1.081       .  S
Co1066     N1084   2.057       .  S
Co1066     N1074   2.034       .  S
Co1066     N1106   2.057       .  S
Co1066     N1082   2.030       .  S
Co1066    Cl1110   2.418       .  S
N1067      C1105   1.364       .  A
N1067      N1074   1.322       .  A
N1067     Co1068   2.175       .  S
Co1068     N1071   2.176       .  S
Co1068     N1088   2.177       .  S
Co1068     N1075   2.180       .  S
Co1068    Cl1110   2.483       .  S
C1069      N1107   1.373       .  A
C1069      C4159   1.492       .  S
N1070      N1077   1.313       .  A
N1070      N1100   1.322       .  A
N1070     Co1103   2.071       .  S
N1071      N1089   1.322       .  A
N1071      N1107   1.341       .  A
N1072      C1101   1.330       .  A
N1072      N1082   1.313       .  A
H1073      C1098   1.080       .  S
N1074      N1095   1.315       .  A
N1075      N1093   1.321       .  A
N1075      N1080   1.342       .  A
C1076      N1080   1.374       .  A
C1076      C1104   1.432       .  S
C1076      C3479   1.495       .  S
N1077      C1092   1.334       .  A
N1077     Co1099   2.049       .  S
C1078      N1106   1.336       .  A
C1078      C1081   1.453       .  S
C1078      H1112   1.079       .  S
C1081      N1102   1.346       .  A
C1081      C3256   1.455       .  S
N1082      N1088   1.321       .  A
N1083      C1109   1.339       .  A
N1083      N1085   1.314       .  A
N1083     Co1099   2.071       .  S
N1084      C1098   1.334       .  A
N1085      N1113   1.320       .  A
N1085     Co1103   2.060       .  S
H1086      C1109   1.081       .  S
H1087      C1104   1.081       .  S
N1089     Co1103   2.027       .  S
N1090      N1102   1.317       .  A
N1090      N1106   1.313       .  A
N1090     Co1099   2.050       .  S
C1091      N1095   1.334       .  A
C1091      C1105   1.495       .  S
C1091      C4326   1.502       .  S
C1092      C1111   1.458       .  S
C1092      H1096   1.080       .  S
N1093      C1104   1.327       .  A
N1093     Co1103   2.033       .  S
C1097      N1113   1.345       .  A
C1097      C1109   1.462       .  S
C1097      C3226   1.465       .  S
Co1099    Cl1110   2.460       .  S
N1100      C1111   1.349       .  A
C1101      C3679   1.506       .  S
Co1103    Cl1110   2.420       .  S
C1111      C3246   1.470       .  S
C1114      N1132   1.349       .  A
C1114      C1151   1.460       .  S
C1114      C3219   1.467       .  S
N1115      N1132   1.319       .  A
N1115      N1137   1.313       .  A
N1115     Co1152   2.061       .  S
C1116      N1141   1.366       .  A
C1116      C1154   1.498       .  S
C1116      H1161   1.082       .  S
H1117      C1158   1.082       .  S
C1118      N1142   1.320       .  A
C1118      C1122   1.432       .  S
C1118      H1147   1.081       .  S
Co1119     N1137   2.060       .  S
Co1119     N1127   2.036       .  S
Co1119     N1159   2.067       .  S
Co1119     N1135   2.035       .  S
Co1119    Cl1163   2.415       .  S
N1120      C1158   1.366       .  A
N1120      N1127   1.323       .  A
N1120     Co1121   2.174       .  S
Co1121     N1124   2.189       .  S
Co1121     N1141   2.180       .  S
Co1121     N1128   2.188       .  S
Co1121    Cl1163   2.478       .  S
C1122      N1160   1.378       .  A
C1122      C3486   1.503       .  S
N1123      N1130   1.314       .  A
N1123      N1153   1.323       .  A
N1123     Co1156   2.073       .  S
N1124      N1142   1.320       .  A
N1124      N1160   1.345       .  A
N1125      C1154   1.333       .  A
N1125      N1135   1.314       .  A
H1126      C1151   1.072       .  S
N1127      N1148   1.313       .  A
N1128      N1146   1.321       .  A
N1128      N1133   1.344       .  A
C1129      N1133   1.377       .  A
C1129      C1157   1.435       .  S
C1129      C3186   1.504       .  S
N1130      C1145   1.335       .  A
N1130     Co1152   2.054       .  S
C1131      N1159   1.338       .  A
C1131      C1134   1.457       .  S
C1131      H1165   1.075       .  S
C1134      N1155   1.344       .  A
C1134      C3206   1.460       .  S
N1135      N1141   1.323       .  A
N1136      C1162   1.340       .  A
N1136      N1138   1.313       .  A
N1136     Co1152   2.063       .  S
N1137      C1151   1.338       .  A
N1138      N1166   1.317       .  A
N1138     Co1156   2.049       .  S
H1139      C1162   1.081       .  S
H1140      C1157   1.081       .  S
N1142     Co1156   2.018       .  S
N1143      N1155   1.318       .  A
N1143      N1159   1.314       .  A
N1143     Co1152   2.049       .  S
C1144      N1148   1.331       .  A
C1144      C1158   1.498       .  S
C1144      C3639   1.503       .  S
C1145      C1164   1.455       .  S
C1145      H1149   1.080       .  S
N1146      C1157   1.325       .  A
N1146     Co1156   2.034       .  S
C1150      N1166   1.341       .  A
C1150      C1162   1.459       .  S
C1150      C3199   1.459       .  S
Co1152    Cl1163   2.473       .  S
N1153      C1164   1.349       .  A
C1154      C3176   1.505       .  S
Co1156    Cl1163   2.419       .  S
C1164      C3229   1.464       .  S
C1167      N1185   1.370       .  A
C1167      C1204   1.432       .  S
C1167      C3966   1.486       .  S
N1168      N1185   1.340       .  A
N1168      N1190   1.322       .  A
N1168     Co1205   2.168       .  S
C1169      N1194   1.337       .  A
C1169      C1207   1.463       .  S
C1169      H1214   1.081       .  S
H1170      C1211   1.082       .  S
C1171      N1195   1.335       .  A
C1171      C1175   1.452       .  S
C1171      H1200   1.078       .  S
Co1172     N1190   2.032       .  S
Co1172     N1180   2.063       .  S
Co1172     N1212   2.035       .  S
Co1172     N1188   2.064       .  S
Co1172    Cl1216   2.424       .  S
N1173      C1211   1.336       .  A
N1173      N1180   1.315       .  A
N1173     Co1174   2.061       .  S
Co1174     N1177   2.064       .  S
Co1174     N1194   2.066       .  S
Co1174     N1181   2.064       .  S
Co1174    Cl1216   2.467       .  S
C1175      N1213   1.349       .  A
C1175      C3149   1.464       .  S
N1176      N1183   1.323       .  A
N1176      N1206   1.316       .  A
N1176     Co1209   2.044       .  S
N1177      N1195   1.313       .  A
N1177      N1213   1.321       .  A
N1178      C1207   1.347       .  A
N1178      N1188   1.321       .  A
H1179      C1204   1.082       .  S
N1180      N1201   1.320       .  A
N1181      N1199   1.314       .  A
N1181      N1186   1.319       .  A
C1182      N1186   1.348       .  A
C1182      C1210   1.458       .  S
C1182      C3299   1.467       .  S
N1183      C1198   1.365       .  A
N1183     Co1205   2.175       .  S
C1184      N1212   1.326       .  A
C1184      C1187   1.434       .  S
C1184      H1218   1.082       .  S
C1187      N1208   1.372       .  A
C1187      C3669   1.492       .  S
N1188      N1194   1.314       .  A
N1189      C1215   1.363       .  A
N1189      N1191   1.320       .  A
N1189     Co1205   2.163       .  S
N1190      C1204   1.327       .  A
N1191      N1219   1.313       .  A
N1191     Co1209   2.032       .  S
H1192      C1215   1.081       .  S
H1193      C1210   1.079       .  S
N1195     Co1209   2.054       .  S
N1196      N1208   1.341       .  A
N1196      N1212   1.323       .  A
N1196     Co1205   2.176       .  S
C1197      N1201   1.346       .  A
C1197      C1211   1.457       .  S
C1197      C3156   1.462       .  S
C1198      C1217   1.495       .  S
C1198      H1202   1.082       .  S
N1199      C1210   1.337       .  A
N1199     Co1209   2.064       .  S
C1203      N1219   1.333       .  A
C1203      C1215   1.496       .  S
C1203      C3429   1.502       .  S
Co1205    Cl1216   2.472       .  S
N1206      C1217   1.334       .  A
C1207      C3166   1.473       .  S
Co1209    Cl1216   2.424       .  S
C1217      C3789   1.501       .  S
C1220      N1238   1.348       .  A
C1220      C1257   1.467       .  S
C1220      C3116   1.477       .  S
N1221      N1238   1.320       .  A
N1221      N1243   1.314       .  A
N1221     Co1258   2.058       .  S
C1222      N1247   1.364       .  A
C1222      C1260   1.496       .  S
C1222      H1267   1.082       .  S
H1223      C1264   1.081       .  S
C1224      N1248   1.329       .  A
C1224      C1228   1.435       .  S
C1224      H1253   1.082       .  S
Co1225     N1243   2.079       .  S
Co1225     N1233   2.038       .  S
Co1225     N1265   2.065       .  S
Co1225     N1241   2.046       .  S
Co1225    Cl1269   2.428       .  S
N1226      C1264   1.362       .  A
N1226      N1233   1.322       .  A
N1226     Co1227   2.173       .  S
Co1227     N1230   2.170       .  S
Co1227     N1247   2.168       .  S
Co1227     N1234   2.173       .  S
Co1227    Cl1269   2.475       .  S
C1228      N1266   1.368       .  A
C1228      C3759   1.482       .  S
N1229      N1236   1.315       .  A
N1229      N1259   1.322       .  A
N1229     Co1262   2.064       .  S
N1230      N1248   1.324       .  A
N1230      N1266   1.338       .  A
N1231      C1260   1.335       .  A
N1231      N1241   1.315       .  A
H1232      C1257   1.078       .  S
N1233      N1254   1.316       .  A
N1234      N1252   1.321       .  A
N1234      N1239   1.341       .  A
C1235      N1239   1.373       .  A
C1235      C1263   1.429       .  S
C1235      C3389   1.485       .  S
N1236      C1251   1.334       .  A
N1236     Co1258   2.057       .  S
C1237      N1265   1.338       .  A
C1237      C1240   1.464       .  S
C1237      H1271   1.079       .  S
C1240      N1261   1.349       .  A
C1240      C3136   1.474       .  S
N1241      N1247   1.322       .  A
N1242      C1268   1.332       .  A
N1242      N1244   1.314       .  A
N1242     Co1258   2.055       .  S
N1243      C1257   1.340       .  A
N1244      N1272   1.324       .  A
N1244     Co1262   2.075       .  S
H1245      C1268   1.081       .  S
H1246      C1263   1.082       .  S
N1248     Co1262   2.042       .  S
N1249      N1261   1.318       .  A
N1249      N1265   1.312       .  A
N1249     Co1258   2.059       .  S
C1250      N1254   1.336       .  A
C1250      C1264   1.495       .  S
C1250      C4029   1.505       .  S
C1251      C1270   1.454       .  S
C1251      H1255   1.081       .  S
N1252      C1263   1.323       .  A
N1252     Co1262   2.021       .  S
C1256      N1272   1.351       .  A
C1256      C1268   1.457       .  S
C1256      C3106   1.469       .  S
Co1258    Cl1269   2.450       .  S
N1259      C1270   1.347       .  A
C1260      C3629   1.507       .  S
Co1262    Cl1269   2.435       .  S
C1270      C3126   1.461       .  S
C1273      N1291   1.372       .  A
C1273      C1310   1.438       .  S
C1273      C4319   1.498       .  S
N1274      N1291   1.341       .  A
N1274      N1296   1.323       .  A
N1274     Co1311   2.182       .  S
C1275      N1300   1.335       .  A
C1275      C1313   1.459       .  S
C1275      H1320   1.081       .  S
H1276      C1317   1.081       .  S
C1277      N1301   1.336       .  A
C1277      C1281   1.453       .  S
C1277      H1306   1.078       .  S
Co1278     N1296   2.046       .  S
Co1278     N1286   2.064       .  S
Co1278     N1318   2.028       .  S
Co1278     N1294   2.081       .  S
Co1278    Cl1322   2.435       .  S
N1279      C1317   1.338       .  A
N1279      N1286   1.316       .  A
N1279     Co1280   2.071       .  S
Co1280     N1283   2.071       .  S
Co1280     N1300   2.063       .  S
Co1280     N1287   2.071       .  S
Co1280    Cl1322   2.458       .  S
C1281      N1319   1.350       .  A
C1281      C3069   1.468       .  S
N1282      N1289   1.321       .  A
N1282      N1312   1.315       .  A
N1282     Co1315   2.034       .  S
N1283      N1301   1.315       .  A
N1283      N1319   1.321       .  A
N1284      C1313   1.350       .  A
N1284      N1294   1.325       .  A
H1285      C1310   1.081       .  S
N1286      N1307   1.321       .  A
N1287      N1305   1.313       .  A
N1287      N1292   1.321       .  A
C1288      N1292   1.352       .  A
C1288      C1316   1.455       .  S
C1288      C3089   1.469       .  S
N1289      C1304   1.361       .  A
N1289     Co1311   2.165       .  S
C1290      N1318   1.321       .  A
C1290      C1293   1.432       .  S
C1290      H1324   1.081       .  S
C1293      N1314   1.372       .  A
C1293      C3959   1.490       .  S
N1294      N1300   1.315       .  A
N1295      C1321   1.367       .  A
N1295      N1297   1.321       .  A
N1295     Co1311   2.173       .  S
N1296      C1310   1.332       .  A
N1297      N1325   1.314       .  A
N1297     Co1315   2.038       .  S
H1298      C1321   1.082       .  S
H1299      C1316   1.076       .  S
N1301     Co1315   2.058       .  S
N1302      N1314   1.342       .  A
N1302      N1318   1.321       .  A
N1302     Co1311   2.169       .  S
C1303      N1307   1.346       .  A
C1303      C1317   1.459       .  S
C1303      C3076   1.466       .  S
C1304      C1323   1.495       .  S
C1304      H1308   1.081       .  S
N1305      C1316   1.332       .  A
N1305     Co1315   2.052       .  S
C1309      N1325   1.334       .  A
C1309      C1321   1.496       .  S
C1309      C3849   1.504       .  S
Co1311    Cl1322   2.478       .  S
N1312      C1323   1.334       .  A
C1313      C3096   1.473       .  S
Co1315    Cl1322   2.426       .  S
C1323      C4196   1.502       .  S
C1326      N1344   1.347       .  A
C1326      C1363   1.463       .  S
C1326      C3059   1.468       .  S
N1327      N1344   1.317       .  A
N1327      N1349   1.312       .  A
N1327     Co1364   2.054       .  S
C1328      N1353   1.361       .  A
C1328      C1366   1.493       .  S
C1328      H1373   1.082       .  S
H1329      C1370   1.081       .  S
C1330      N1354   1.325       .  A
C1330      C1334   1.430       .  S
C1330      H1359   1.082       .  S
Co1331     N1349   2.061       .  S
Co1331     N1339   2.032       .  S
Co1331     N1371   2.056       .  S
Co1331     N1347   2.036       .  S
Co1331    Cl1375   2.420       .  S
N1332      C1370   1.365       .  A
N1332      N1339   1.323       .  A
N1332     Co1333   2.177       .  S
Co1333     N1336   2.173       .  S
Co1333     N1353   2.162       .  S
Co1333     N1340   2.197       .  S
Co1333    Cl1375   2.469       .  S
C1334      N1372   1.371       .  A
C1334      C3799   1.484       .  S
N1335      N1342   1.313       .  A
N1335      N1365   1.322       .  A
N1335     Co1368   2.066       .  S
N1336      N1354   1.321       .  A
N1336      N1372   1.340       .  A
N1337      C1366   1.333       .  A
N1337      N1347   1.314       .  A
H1338      C1363   1.080       .  S
N1339      N1360   1.313       .  A
N1340      N1358   1.321       .  A
N1340      N1345   1.345       .  A
C1341      N1345   1.379       .  A
C1341      C1369   1.433       .  S
C1341      C3029   1.506       .  S
N1342      C1357   1.332       .  A
N1342     Co1364   2.054       .  S
C1343      N1371   1.335       .  A
C1343      C1346   1.453       .  S
C1343      H1377   1.076       .  S
C1346      N1367   1.347       .  A
C1346      C3039   1.460       .  S
N1347      N1353   1.322       .  A
N1348      C1374   1.336       .  A
N1348      N1350   1.313       .  A
N1348     Co1364   2.060       .  S
N1349      C1363   1.338       .  A
N1350      N1378   1.321       .  A
N1350     Co1368   2.062       .  S
H1351      C1374   1.080       .  S
H1352      C1369   1.080       .  S
N1354     Co1368   2.024       .  S
N1355      N1367   1.319       .  A
N1355      N1371   1.314       .  A
N1355     Co1364   2.058       .  S
C1356      N1360   1.332       .  A
C1356      C1370   1.499       .  S
C1356      C3929   1.504       .  S
C1357      C1376   1.458       .  S
C1357      H1361   1.079       .  S
N1358      C1369   1.324       .  A
N1358     Co1368   2.028       .  S
C1362      N1378   1.345       .  A
C1362      C1374   1.462       .  S
C1362      C3289   1.470       .  S
Co1364    Cl1375   2.463       .  S
N1365      C1376   1.350       .  A
C1366      C3046   1.498       .  S
Co1368    Cl1375   2.427       .  S
C1376      C3146   1.467       .  S
C1379      N1397   1.370       .  A
C1379      C1416   1.434       .  S
C1379      C4069   1.486       .  S
N1380      N1397   1.340       .  A
N1380      N1402   1.322       .  A
N1380     Co1417   2.170       .  S
C1381      N1406   1.335       .  A
C1381      C1419   1.459       .  S
C1381      H1426   1.080       .  S
H1382      C1423   1.081       .  S
C1383      N1407   1.337       .  A
C1383      C1387   1.456       .  S
C1383      H1412   1.079       .  S
Co1384     N1402   2.034       .  S
Co1384     N1392   2.079       .  S
Co1384     N1424   2.042       .  S
Co1384     N1400   2.068       .  S
Co1384    Cl1428   2.435       .  S
N1385      C1423   1.334       .  A
N1385      N1392   1.314       .  A
N1385     Co1386   2.059       .  S
Co1386     N1389   2.062       .  S
Co1386     N1406   2.062       .  S
Co1386     N1393   2.064       .  S
Co1386    Cl1428   2.462       .  S
C1387      N1425   1.348       .  A
C1387      C3086   1.465       .  S
N1388      N1395   1.322       .  A
N1388      N1418   1.318       .  A
N1388     Co1421   2.054       .  S
N1389      N1407   1.313       .  A
N1389      N1425   1.319       .  A
N1390      C1419   1.348       .  A
N1390      N1400   1.323       .  A
H1391      C1416   1.082       .  S
N1392      N1413   1.324       .  A
N1393      N1411   1.314       .  A
N1393      N1398   1.320       .  A
C1394      N1398   1.348       .  A
C1394      C1422   1.463       .  S
C1394      C2999   1.476       .  S
N1395      C1410   1.364       .  A
N1395     Co1417   2.170       .  S
C1396      N1424   1.329       .  A
C1396      C1399   1.434       .  S
C1396      H1430   1.082       .  S
C1399      N1420   1.371       .  A
C1399      C3006   1.489       .  S
N1400      N1406   1.314       .  A
N1401      C1427   1.364       .  A
N1401      N1403   1.322       .  A
N1401     Co1417   2.178       .  S
N1402      C1416   1.328       .  A
N1403      N1431   1.315       .  A
N1403     Co1421   2.029       .  S
H1404      C1427   1.082       .  S
H1405      C1422   1.079       .  S
N1407     Co1421   2.056       .  S
N1408      N1420   1.340       .  A
N1408      N1424   1.324       .  A
N1408     Co1417   2.177       .  S
C1409      N1413   1.352       .  A
C1409      C1423   1.457       .  S
C1409      C3016   1.473       .  S
C1410      C1429   1.495       .  S
C1410      H1414   1.082       .  S
N1411      C1422   1.340       .  A
N1411     Co1421   2.073       .  S
C1415      N1431   1.333       .  A
C1415      C1427   1.495       .  S
C1415      C2986   1.499       .  S
Co1417    Cl1428   2.464       .  S
N1418      C1429   1.336       .  A
C1419      C3346   1.471       .  S
Co1421    Cl1428   2.434       .  S
C1429      C3839   1.507       .  S
C1432      N1450   1.347       .  A
C1432      C1469   1.458       .  S
C1432      C2966   1.467       .  S
N1433      N1450   1.318       .  A
N1433      N1455   1.313       .  A
N1433     Co1470   2.061       .  S
C1434      N1459   1.367       .  A
C1434      C1472   1.500       .  S
C1434      H1479   1.082       .  S
H1435      C1476   1.081       .  S
C1436      N1460   1.325       .  A
C1436      C1440   1.433       .  S
C1436      H1465   1.081       .  S
Co1437     N1455   2.061       .  S
Co1437     N1445   2.032       .  S
Co1437     N1477   2.076       .  S
Co1437     N1453   2.025       .  S
Co1437    Cl1481   2.426       .  S
N1438      C1476   1.363       .  A
N1438      N1445   1.323       .  A
N1438     Co1439   2.166       .  S
Co1439     N1442   2.189       .  S
Co1439     N1459   2.187       .  S
Co1439     N1446   2.166       .  S
Co1439    Cl1481   2.471       .  S
C1440      N1478   1.377       .  A
C1440      C3829   1.503       .  S
N1441      N1448   1.312       .  A
N1441      N1471   1.318       .  A
N1441     Co1474   2.058       .  S
N1442      N1460   1.321       .  A
N1442      N1478   1.344       .  A
N1443      C1472   1.329       .  A
N1443      N1453   1.311       .  A
H1444      C1469   1.080       .  S
N1445      N1466   1.314       .  A
N1446      N1464   1.321       .  A
N1446      N1451   1.340       .  A
C1447      N1451   1.370       .  A
C1447      C1475   1.436       .  S
C1447      C2956   1.487       .  S
N1448      C1463   1.335       .  A
N1448     Co1470   2.047       .  S
C1449      N1477   1.343       .  A
C1449      C1452   1.461       .  S
C1449      H1483   1.080       .  S
C1452      N1473   1.343       .  A
C1452      C2936   1.462       .  S
N1453      N1459   1.324       .  A
N1454      C1480   1.335       .  A
N1454      N1456   1.313       .  A
N1454     Co1470   2.057       .  S
N1455      C1469   1.340       .  A
N1456      N1484   1.318       .  A
N1456     Co1474   2.059       .  S
H1457      C1480   1.081       .  S
H1458      C1475   1.082       .  S
N1460     Co1474   2.032       .  S
N1461      N1473   1.317       .  A
N1461      N1477   1.313       .  A
N1461     Co1470   2.048       .  S
C1462      N1466   1.329       .  A
C1462      C1476   1.489       .  S
C1462      C3879   1.483       .  S
C1463      C1482   1.460       .  S
C1463      H1467   1.079       .  S
N1464      C1475   1.328       .  A
N1464     Co1474   2.037       .  S
C1468      N1484   1.347       .  A
C1468      C1480   1.460       .  S
C1468      C3209   1.465       .  S
Co1470    Cl1481   2.466       .  S
N1471      C1482   1.344       .  A
C1472      C2946   1.502       .  S
Co1474    Cl1481   2.417       .  S
C1482      C2979   1.463       .  S
C1485      N1503   1.373       .  A
C1485      C1522   1.434       .  S
C1485      C3049   1.492       .  S
N1486      N1503   1.341       .  A
N1486      N1508   1.322       .  A
N1486     Co1523   2.173       .  S
C1487      N1512   1.331       .  A
C1487      C1525   1.450       .  S
C1487      H1532   1.081       .  S
H1488      C1529   1.081       .  S
C1489      N1513   1.340       .  A
C1489      C1493   1.466       .  S
C1489      H1518   1.079       .  S
Co1490     N1508   2.029       .  S
Co1490     N1498   2.065       .  S
Co1490     N1530   2.036       .  S
Co1490     N1506   2.063       .  S
Co1490    Cl1534   2.429       .  S
N1491      C1529   1.338       .  A
N1491      N1498   1.314       .  A
N1491     Co1492   2.069       .  S
Co1492     N1495   2.046       .  S
Co1492     N1512   2.048       .  S
Co1492     N1499   2.070       .  S
Co1492    Cl1534   2.464       .  S
C1493      N1531   1.344       .  A
C1493      C2916   1.471       .  S
N1494      N1501   1.323       .  A
N1494      N1524   1.316       .  A
N1494     Co1527   2.044       .  S
N1495      N1513   1.312       .  A
N1495      N1531   1.316       .  A
N1496      C1525   1.347       .  A
N1496      N1506   1.322       .  A
H1497      C1522   1.081       .  S
N1498      N1519   1.323       .  A
N1499      N1517   1.314       .  A
N1499      N1504   1.322       .  A
C1500      N1504   1.350       .  A
C1500      C1528   1.457       .  S
C1500      C2909   1.474       .  S
N1501      C1516   1.361       .  A
N1501     Co1523   2.166       .  S
C1502      N1530   1.328       .  A
C1502      C1505   1.431       .  S
C1502      H1536   1.082       .  S
C1505      N1526   1.371       .  A
C1505      C2886   1.485       .  S
N1506      N1512   1.314       .  A
N1507      C1533   1.363       .  A
N1507      N1509   1.323       .  A
N1507     Co1523   2.170       .  S
N1508      C1522   1.323       .  A
N1509      N1537   1.315       .  A
N1509     Co1527   2.044       .  S
H1510      C1533   1.081       .  S
H1511      C1528   1.078       .  S
N1513     Co1527   2.070       .  S
N1514      N1526   1.340       .  A
N1514      N1530   1.323       .  A
N1514     Co1523   2.174       .  S
C1515      N1519   1.346       .  A
C1515      C1529   1.456       .  S
C1515      C2926   1.465       .  S
C1516      C1535   1.494       .  S
C1516      H1520   1.081       .  S
N1517      C1528   1.337       .  A
N1517     Co1527   2.068       .  S
C1521      N1537   1.334       .  A
C1521      C1533   1.497       .  S
C1521      C2949   1.507       .  S
Co1523    Cl1534   2.471       .  S
N1524      C1535   1.336       .  A
C1525      C2896   1.452       .  S
Co1527    Cl1534   2.425       .  S
C1535      C2879   1.504       .  S
C1538      N1556   1.352       .  A
C1538      C1575   1.454       .  S
C1538      C3139   1.471       .  S
N1539      N1556   1.322       .  A
N1539      N1561   1.312       .  A
N1539     Co1576   2.072       .  S
C1540      N1565   1.365       .  A
C1540      C1578   1.498       .  S
C1540      H1585   1.082       .  S
H1541      C1582   1.082       .  S
C1542      N1566   1.328       .  A
C1542      C1546   1.442       .  S
C1542      H1571   1.081       .  S
Co1543     N1561   2.050       .  S
Co1543     N1551   2.033       .  S
Co1543     N1583   2.068       .  S
Co1543     N1559   2.025       .  S
Co1543    Cl1587   2.428       .  S
N1544      C1582   1.363       .  A
N1544      N1551   1.323       .  A
N1544     Co1545   2.172       .  S
Co1545     N1548   2.181       .  S
Co1545     N1565   2.173       .  S
Co1545     N1552   2.159       .  S
Co1545    Cl1587   2.471       .  S
C1546      N1584   1.375       .  A
C1546      C3559   1.507       .  S
N1547      N1554   1.315       .  A
N1547      N1577   1.321       .  A
N1547     Co1580   2.064       .  S
N1548      N1566   1.322       .  A
N1548      N1584   1.343       .  A
N1549      C1578   1.329       .  A
N1549      N1559   1.311       .  A
H1550      C1575   1.076       .  S
N1551      N1572   1.314       .  A
N1552      N1570   1.322       .  A
N1552      N1557   1.338       .  A
C1553      N1557   1.369       .  A
C1553      C1581   1.435       .  S
C1553      C2826   1.484       .  S
N1554      C1569   1.332       .  A
N1554     Co1576   2.051       .  S
C1555      N1583   1.340       .  A
C1555      C1558   1.457       .  S
C1555      H1589   1.080       .  S
C1558      N1579   1.345       .  A
C1558      C2846   1.458       .  S
N1559      N1565   1.321       .  A
N1560      C1586   1.333       .  A
N1560      N1562   1.314       .  A
N1560     Co1576   2.058       .  S
N1561      C1575   1.334       .  A
N1562      N1590   1.322       .  A
N1562     Co1580   2.071       .  S
H1563      C1586   1.081       .  S
H1564      C1581   1.082       .  S
N1566     Co1580   2.046       .  S
N1567      N1579   1.319       .  A
N1567      N1583   1.314       .  A
N1567     Co1576   2.057       .  S
C1568      N1572   1.332       .  A
C1568      C1582   1.494       .  S
C1568      C3599   1.496       .  S
C1569      C1588   1.454       .  S
C1569      H1573   1.081       .  S
N1570      C1581   1.327       .  A
N1570     Co1580   2.036       .  S
C1574      N1590   1.351       .  A
C1574      C1586   1.460       .  S
C1574      C2836   1.472       .  S
Co1576    Cl1587   2.463       .  S
N1577      C1588   1.346       .  A
C1578      C2856   1.498       .  S
Co1580    Cl1587   2.425       .  S
C1588      C2866   1.459       .  S
C1591      N1609   1.371       .  A
C1591      C1628   1.432       .  S
C1591      C3269   1.485       .  S
N1592      N1609   1.339       .  A
N1592      N1614   1.321       .  A
N1592     Co1629   2.166       .  S
C1593      N1618   1.336       .  A
C1593      C1631   1.462       .  S
C1593      H1638   1.080       .  S
H1594      C1635   1.081       .  S
C1595      N1619   1.338       .  A
C1595      C1599   1.456       .  S
C1595      H1624   1.080       .  S
Co1596     N1614   2.028       .  S
Co1596     N1604   2.079       .  S
Co1596     N1636   2.052       .  S
Co1596     N1612   2.064       .  S
Co1596    Cl1640   2.424       .  S
N1597      C1635   1.333       .  A
N1597      N1604   1.313       .  A
N1597     Co1598   2.054       .  S
Co1598     N1601   2.070       .  S
Co1598     N1618   2.063       .  S
Co1598     N1605   2.059       .  S
Co1598    Cl1640   2.456       .  S
C1599      N1637   1.350       .  A
C1599      C2929   1.466       .  S
N1600      N1607   1.322       .  A
N1600      N1630   1.314       .  A
N1600     Co1633   2.028       .  S
N1601      N1619   1.313       .  A
N1601      N1637   1.321       .  A
N1602      C1631   1.348       .  A
N1602      N1612   1.321       .  A
H1603      C1628   1.082       .  S
N1604      N1625   1.323       .  A
N1605      N1623   1.314       .  A
N1605      N1610   1.319       .  A
C1606      N1610   1.346       .  A
C1606      C1634   1.456       .  S
C1606      C2819   1.463       .  S
N1607      C1622   1.366       .  A
N1607     Co1629   2.177       .  S
C1608      N1636   1.330       .  A
C1608      C1611   1.445       .  S
C1608      H1642   1.081       .  S
C1611      N1632   1.373       .  A
C1611      C2806   1.506       .  S
N1612      N1618   1.314       .  A
N1613      C1639   1.365       .  A
N1613      N1615   1.322       .  A
N1613     Co1629   2.182       .  S
N1614      C1628   1.325       .  A
N1615      N1643   1.314       .  A
N1615     Co1633   2.027       .  S
H1616      C1639   1.082       .  S
H1617      C1634   1.077       .  S
N1619     Co1633   2.063       .  S
N1620      N1632   1.341       .  A
N1620      N1636   1.323       .  A
N1620     Co1629   2.178       .  S
C1621      N1625   1.352       .  A
C1621      C1635   1.461       .  S
C1621      C2789   1.473       .  S
C1622      C1641   1.497       .  S
C1622      H1626   1.081       .  S
N1623      C1634   1.338       .  A
N1623     Co1633   2.064       .  S
C1627      N1643   1.332       .  A
C1627      C1639   1.499       .  S
C1627      C2859   1.505       .  S
Co1629    Cl1640   2.477       .  S
N1630      C1641   1.329       .  A
C1631      C2799   1.473       .  S
Co1633    Cl1640   2.429       .  S
C1641      C3026   1.497       .  S
C1644      N1662   1.348       .  A
C1644      C1681   1.460       .  S
C1644      C2776   1.467       .  S
N1645      N1662   1.319       .  A
N1645      N1667   1.313       .  A
N1645     Co1682   2.063       .  S
C1646      N1671   1.358       .  A
C1646      C1684   1.487       .  S
C1646      H1691   1.082       .  S
H1647      C1688   1.082       .  S
C1648      N1672   1.329       .  A
C1648      C1652   1.438       .  S
C1648      H1677   1.081       .  S
Co1649     N1667   2.069       .  S
Co1649     N1657   2.020       .  S
Co1649     N1689   2.061       .  S
Co1649     N1665   2.039       .  S
Co1649    Cl1693   2.439       .  S
N1650      C1688   1.365       .  A
N1650      N1657   1.321       .  A
N1650     Co1651   2.172       .  S
Co1651     N1654   2.155       .  S
Co1651     N1671   2.165       .  S
Co1651     N1658   2.177       .  S
Co1651    Cl1693   2.460       .  S
C1652      N1690   1.367       .  A
C1652      C4209   1.482       .  S
N1653      N1660   1.313       .  A
N1653      N1683   1.324       .  A
N1653     Co1686   2.083       .  S
N1654      N1672   1.323       .  A
N1654      N1690   1.337       .  A
N1655      C1684   1.334       .  A
N1655      N1665   1.317       .  A
H1656      C1681   1.080       .  S
N1657      N1678   1.311       .  A
N1658      N1676   1.323       .  A
N1658      N1663   1.341       .  A
C1659      N1663   1.371       .  A
C1659      C1687   1.439       .  S
C1659      C2759   1.497       .  S
N1660      C1675   1.331       .  A
N1660     Co1682   2.047       .  S
C1661      N1689   1.339       .  A
C1661      C1664   1.456       .  S
C1661      H1695   1.082       .  S
C1664      N1685   1.346       .  A
C1664      C3356   1.462       .  S
N1665      N1671   1.325       .  A
N1666      C1692   1.335       .  A
N1666      N1668   1.315       .  A
N1666     Co1682   2.063       .  S
N1667      C1681   1.340       .  A
N1668      N1696   1.322       .  A
N1668     Co1686   2.071       .  S
H1669      C1692   1.079       .  S
H1670      C1687   1.082       .  S
N1672     Co1686   2.045       .  S
N1673      N1685   1.319       .  A
N1673      N1689   1.314       .  A
N1673     Co1682   2.059       .  S
C1674      N1678   1.329       .  A
C1674      C1688   1.496       .  S
C1674      C4429   1.495       .  S
C1675      C1694   1.457       .  S
C1675      H1679   1.079       .  S
N1676      C1687   1.334       .  A
N1676     Co1686   2.053       .  S
C1680      N1696   1.350       .  A
C1680      C1692   1.463       .  S
C1680      C2996   1.476       .  S
Co1682    Cl1693   2.457       .  S
N1683      C1694   1.354       .  A
C1684      C2766   1.485       .  S
Co1686    Cl1693   2.435       .  S
C1694      C3066   1.475       .  S
C1697      N1715   1.371       .  A
C1697      C1734   1.436       .  S
C1697      C4289   1.491       .  S
N1698      N1715   1.340       .  A
N1698      N1720   1.321       .  A
N1698     Co1735   2.167       .  S
C1699      N1724   1.340       .  A
C1699      C1737   1.464       .  S
C1699      H1744   1.081       .  S
H1700      C1741   1.080       .  S
C1701      N1725   1.339       .  A
C1701      C1705   1.459       .  S
C1701      H1730   1.080       .  S
Co1702     N1720   2.033       .  S
Co1702     N1710   2.068       .  S
Co1702     N1742   2.033       .  S
Co1702     N1718   2.064       .  S
Co1702    Cl1746   2.422       .  S
N1703      C1741   1.334       .  A
N1703      N1710   1.314       .  A
N1703     Co1704   2.055       .  S
Co1704     N1707   2.063       .  S
Co1704     N1724   2.068       .  S
Co1704     N1711   2.050       .  S
Co1704    Cl1746   2.459       .  S
C1705      N1743   1.347       .  A
C1705      C3249   1.467       .  S
N1706      N1713   1.323       .  A
N1706      N1736   1.316       .  A
N1706     Co1739   2.040       .  S
N1707      N1725   1.314       .  A
N1707      N1743   1.318       .  A
N1708      C1737   1.345       .  A
N1708      N1718   1.320       .  A
H1709      C1734   1.081       .  S
N1710      N1731   1.322       .  A
N1711      N1729   1.314       .  A
N1711      N1716   1.318       .  A
C1712      N1716   1.346       .  A
C1712      C1740   1.457       .  S
C1712      C3196   1.458       .  S
N1713      C1728   1.361       .  A
N1713     Co1735   2.165       .  S
C1714      N1742   1.326       .  A
C1714      C1717   1.429       .  S
C1714      H1748   1.081       .  S
C1717      N1738   1.372       .  A
C1717      C2889   1.488       .  S
N1718      N1724   1.313       .  A
N1719      C1745   1.363       .  A
N1719      N1721   1.321       .  A
N1719     Co1735   2.170       .  S
N1720      C1734   1.326       .  A
N1721      N1749   1.314       .  A
N1721     Co1739   2.033       .  S
H1722      C1745   1.081       .  S
H1723      C1740   1.077       .  S
N1725     Co1739   2.064       .  S
N1726      N1738   1.342       .  A
N1726      N1742   1.322       .  A
N1726     Co1735   2.175       .  S
C1727      N1731   1.349       .  A
C1727      C1741   1.457       .  S
C1727      C2746   1.467       .  S
C1728      C1747   1.491       .  S
C1728      H1732   1.082       .  S
N1729      C1740   1.336       .  A
N1729     Co1739   2.064       .  S
C1733      N1749   1.333       .  A
C1733      C1745   1.497       .  S
C1733      C2736   1.505       .  S
Co1735    Cl1746   2.478       .  S
N1736      C1747   1.334       .  A
C1737      C2939   1.470       .  S
Co1739    Cl1746   2.424       .  S
C1747      C4149   1.494       .  S
C1750      N1768   1.376       .  A
C1750      C1787   1.438       .  S
C1750      C4239   1.503       .  S
N1751      N1768   1.342       .  A
N1751      N1773   1.321       .  A
N1751     Co1788   2.184       .  S
C1752      N1777   1.335       .  A
C1752      C1790   1.459       .  S
C1752      H1797   1.082       .  S
H1753      C1794   1.080       .  S
C1754      N1778   1.340       .  A
C1754      C1758   1.457       .  S
C1754      H1783   1.078       .  S
Co1755     N1773   2.035       .  S
Co1755     N1763   2.061       .  S
Co1755     N1795   2.037       .  S
Co1755     N1771   2.061       .  S
Co1755    Cl1799   2.422       .  S
N1756      C1794   1.335       .  A
N1756      N1763   1.314       .  A
N1756     Co1757   2.054       .  S
Co1757     N1760   2.064       .  S
Co1757     N1777   2.057       .  S
Co1757     N1764   2.058       .  S
Co1757    Cl1799   2.467       .  S
C1758      N1796   1.348       .  A
C1758      C2716   1.468       .  S
N1759      N1766   1.324       .  A
N1759      N1789   1.316       .  A
N1759     Co1792   2.046       .  S
N1760      N1778   1.313       .  A
N1760      N1796   1.319       .  A
N1761      C1790   1.347       .  A
N1761      N1771   1.320       .  A
H1762      C1787   1.081       .  S
N1763      N1784   1.319       .  A
N1764      N1782   1.314       .  A
N1764      N1769   1.319       .  A
C1765      N1769   1.346       .  A
C1765      C1793   1.460       .  S
C1765      C3309   1.465       .  S
N1766      C1781   1.364       .  A
N1766     Co1788   2.175       .  S
C1767      N1795   1.327       .  A
C1767      C1770   1.439       .  S
C1767      H1801   1.081       .  S
C1770      N1791   1.372       .  A
C1770      C2876   1.495       .  S
N1771      N1777   1.313       .  A
N1772      C1798   1.366       .  A
N1772      N1774   1.323       .  A
N1772     Co1788   2.180       .  S
N1773      C1787   1.329       .  A
N1774      N1802   1.314       .  A
N1774     Co1792   2.033       .  S
H1775      C1798   1.082       .  S
H1776      C1793   1.082       .  S
N1778     Co1792   2.061       .  S
N1779      N1791   1.340       .  A
N1779      N1795   1.321       .  A
N1779     Co1788   2.168       .  S
C1780      N1784   1.346       .  A
C1780      C1794   1.458       .  S
C1780      C2726   1.465       .  S
C1781      C1800   1.494       .  S
C1781      H1785   1.082       .  S
N1782      C1793   1.340       .  A
N1782     Co1792   2.075       .  S
C1786      N1802   1.332       .  A
C1786      C1798   1.498       .  S
C1786      C2709   1.504       .  S
Co1788    Cl1799   2.472       .  S
N1789      C1800   1.334       .  A
C1790      C3036   1.465       .  S
Co1792    Cl1799   2.429       .  S
C1800      C4189   1.500       .  S
C1803      N1821   1.349       .  A
C1803      C1840   1.462       .  S
C1803      C2686   1.473       .  S
N1804      N1821   1.320       .  A
N1804      N1826   1.313       .  A
N1804     Co1841   2.063       .  S
C1805      N1830   1.363       .  A
C1805      C1843   1.497       .  S
C1805      H1850   1.082       .  S
H1806      C1847   1.081       .  S
C1807      N1831   1.321       .  A
C1807      C1811   1.430       .  S
C1807      H1836   1.081       .  S
Co1808     N1826   2.072       .  S
Co1808     N1816   2.033       .  S
Co1808     N1848   2.060       .  S
Co1808     N1824   2.045       .  S
Co1808    Cl1852   2.422       .  S
N1809      C1847   1.363       .  A
N1809      N1816   1.322       .  A
N1809     Co1810   2.172       .  S
Co1810     N1813   2.181       .  S
Co1810     N1830   2.169       .  S
Co1810     N1817   2.180       .  S
Co1810    Cl1852   2.479       .  S
C1811      N1849   1.375       .  A
C1811      C2769   1.494       .  S
N1812      N1819   1.314       .  A
N1812      N1842   1.321       .  A
N1812     Co1845   2.072       .  S
N1813      N1831   1.321       .  A
N1813      N1849   1.343       .  A
N1814      C1843   1.335       .  A
N1814      N1824   1.316       .  A
H1815      C1840   1.079       .  S
N1816      N1837   1.315       .  A
N1817      N1835   1.323       .  A
N1817      N1822   1.340       .  A
C1818      N1822   1.372       .  A
C1818      C1846   1.436       .  S
C1818      C3279   1.492       .  S
N1819      C1834   1.336       .  A
N1819     Co1841   2.053       .  S
C1820      N1848   1.335       .  A
C1820      C1823   1.459       .  S
C1820      H1854   1.077       .  S
C1823      N1844   1.349       .  A
C1823      C2919   1.472       .  S
N1824      N1830   1.322       .  A
N1825      C1851   1.332       .  A
N1825      N1827   1.315       .  A
N1825     Co1841   2.060       .  S
N1826      C1840   1.339       .  A
N1827      N1855   1.325       .  A
N1827     Co1845   2.068       .  S
H1828      C1851   1.080       .  S
H1829      C1846   1.082       .  S
N1831     Co1845   2.023       .  S
N1832      N1844   1.320       .  A
N1832      N1848   1.313       .  A
N1832     Co1841   2.062       .  S
C1833      N1837   1.333       .  A
C1833      C1847   1.497       .  S
C1833      C3339   1.505       .  S
C1834      C1853   1.456       .  S
C1834      H1838   1.081       .  S
N1835      C1846   1.330       .  A
N1835     Co1845   2.035       .  S
C1839      N1855   1.348       .  A
C1839      C1851   1.453       .  S
C1839      C2786   1.466       .  S
Co1841    Cl1852   2.462       .  S
N1842      C1853   1.346       .  A
C1843      C2706   1.508       .  S
Co1845    Cl1852   2.430       .  S
C1853      C2696   1.460       .  S
C1856      N1874   1.369       .  A
C1856      C1893   1.428       .  S
C1856      C4399   1.477       .  S
N1857      N1874   1.339       .  A
N1857      N1879   1.322       .  A
N1857     Co1894   2.162       .  S
C1858      N1883   1.332       .  A
C1858      C1896   1.458       .  S
C1858      H1903   1.081       .  S
H1859      C1900   1.081       .  S
C1860      N1884   1.337       .  A
C1860      C1864   1.452       .  S
C1860      H1889   1.077       .  S
Co1861     N1879   2.025       .  S
Co1861     N1869   2.068       .  S
Co1861     N1901   2.042       .  S
Co1861     N1877   2.058       .  S
Co1861    Cl1905   2.418       .  S
N1862      C1900   1.336       .  A
N1862      N1869   1.314       .  A
N1862     Co1863   2.064       .  S
Co1863     N1866   2.055       .  S
Co1863     N1883   2.050       .  S
Co1863     N1870   2.075       .  S
Co1863    Cl1905   2.467       .  S
C1864      N1902   1.346       .  A
C1864      C2676   1.460       .  S
N1865      N1872   1.322       .  A
N1865      N1895   1.311       .  A
N1865     Co1898   2.028       .  S
N1866      N1884   1.313       .  A
N1866      N1902   1.319       .  A
N1867      C1896   1.346       .  A
N1867      N1877   1.321       .  A
H1868      C1893   1.082       .  S
N1869      N1890   1.320       .  A
N1870      N1888   1.314       .  A
N1870      N1875   1.322       .  A
C1871      N1875   1.351       .  A
C1871      C1899   1.449       .  S
C1871      C3109   1.462       .  S
N1872      C1887   1.365       .  A
N1872     Co1894   2.173       .  S
C1873      N1901   1.326       .  A
C1873      C1876   1.440       .  S
C1873      H1907   1.080       .  S
C1876      N1897   1.373       .  A
C1876      C3546   1.501       .  S
N1877      N1883   1.313       .  A
N1878      C1904   1.365       .  A
N1878      N1880   1.322       .  A
N1878     Co1894   2.168       .  S
N1879      C1893   1.325       .  A
N1880      N1908   1.314       .  A
N1880     Co1898   2.035       .  S
H1881      C1904   1.082       .  S
H1882      C1899   1.080       .  S
N1884     Co1898   2.062       .  S
N1885      N1897   1.340       .  A
N1885      N1901   1.322       .  A
N1885     Co1894   2.171       .  S
C1886      N1890   1.349       .  A
C1886      C1900   1.461       .  S
C1886      C2666   1.472       .  S
C1887      C1906   1.498       .  S
C1887      H1891   1.082       .  S
N1888      C1899   1.334       .  A
N1888     Co1898   2.050       .  S
C1892      N1908   1.332       .  A
C1892      C1904   1.493       .  S
C1892      C3399   1.495       .  S
Co1894    Cl1905   2.475       .  S
N1895      C1906   1.330       .  A
C1896      C2869   1.462       .  S
Co1898    Cl1905   2.422       .  S
C1906      C4116   1.503       .  S
C1909      N1927   1.370       .  A
C1909      C1946   1.440       .  S
C1909      C3326   1.494       .  S
N1910      N1927   1.338       .  A
N1910      N1932   1.322       .  A
N1910     Co1947   2.164       .  S
C1911      N1936   1.337       .  A
C1911      C1949   1.463       .  S
C1911      H1956   1.080       .  S
H1912      C1953   1.080       .  S
C1913      N1937   1.338       .  A
C1913      C1917   1.452       .  S
C1913      H1942   1.081       .  S
Co1914     N1932   2.043       .  S
Co1914     N1922   2.071       .  S
Co1914     N1954   2.047       .  S
Co1914     N1930   2.072       .  S
Co1914    Cl1958   2.426       .  S
N1915      C1953   1.340       .  A
N1915      N1922   1.314       .  A
N1915     Co1916   2.068       .  S
Co1916     N1919   2.067       .  S
Co1916     N1936   2.066       .  S
Co1916     N1923   2.064       .  S
Co1916    Cl1958   2.465       .  S
C1917      N1955   1.347       .  A
C1917      C2656   1.460       .  S
N1918      N1925   1.323       .  A
N1918      N1948   1.315       .  A
N1918     Co1951   2.041       .  S
N1919      N1937   1.314       .  A
N1919      N1955   1.320       .  A
N1920      C1949   1.351       .  A
N1920      N1930   1.323       .  A
H1921      C1946   1.081       .  S
N1922      N1943   1.321       .  A
N1923      N1941   1.315       .  A
N1923      N1928   1.319       .  A
C1924      N1928   1.347       .  A
C1924      C1952   1.457       .  S
C1924      C2646   1.461       .  S
N1925      C1940   1.362       .  A
N1925     Co1947   2.164       .  S
C1926      N1954   1.329       .  A
C1926      C1929   1.437       .  S
C1926      H1960   1.081       .  S
C1929      N1950   1.368       .  A
C1929      C2959   1.485       .  S
N1930      N1936   1.313       .  A
N1931      C1957   1.364       .  A
N1931      N1933   1.322       .  A
N1931     Co1947   2.172       .  S
N1932      C1946   1.329       .  A
N1933      N1961   1.313       .  A
N1933     Co1951   2.029       .  S
H1934      C1957   1.082       .  S
H1935      C1952   1.080       .  S
N1937     Co1951   2.055       .  S
N1938      N1950   1.339       .  A
N1938      N1954   1.323       .  A
N1938     Co1947   2.162       .  S
C1939      N1943   1.347       .  A
C1939      C1953   1.463       .  S
C1939      C2689   1.475       .  S
C1940      C1959   1.488       .  S
C1940      H1944   1.082       .  S
N1941      C1952   1.339       .  A
N1941     Co1951   2.068       .  S
C1945      N1961   1.331       .  A
C1945      C1957   1.496       .  S
C1945      C3179   1.495       .  S
Co1947    Cl1958   2.470       .  S
N1948      C1959   1.334       .  A
C1949      C2906   1.477       .  S
Co1951    Cl1958   2.432       .  S
C1959      C3009   1.490       .  S
C1962      N1980   1.352       .  A
C1962      C1999   1.455       .  S
C1962      C2639   1.470       .  S
N1963      N1980   1.322       .  A
N1963      N1985   1.313       .  A
N1963     Co2000   2.070       .  S
C1964      N1989   1.362       .  A
C1964      C2002   1.492       .  S
C1964      H2009   1.081       .  S
H1965      C2006   1.081       .  S
C1966      N1990   1.322       .  A
C1966      C1970   1.425       .  S
C1966      H1995   1.081       .  S
Co1967     N1985   2.062       .  S
Co1967     N1975   2.031       .  S
Co1967     N2007   2.064       .  S
Co1967     N1983   2.041       .  S
Co1967    Cl2011   2.424       .  S
N1968      C2006   1.366       .  A
N1968      N1975   1.321       .  A
N1968     Co1969   2.176       .  S
Co1969     N1972   2.179       .  S
Co1969     N1989   2.162       .  S
Co1969     N1976   2.167       .  S
Co1969    Cl2011   2.475       .  S
C1970      N2008   1.374       .  A
C1970      C4109   1.484       .  S
N1971      N1978   1.314       .  A
N1971      N2001   1.321       .  A
N1971     Co2004   2.068       .  S
N1972      N1990   1.321       .  A
N1972      N2008   1.342       .  A
N1973      C2002   1.337       .  A
N1973      N1983   1.316       .  A
H1974      C1999   1.077       .  S
N1975      N1996   1.312       .  A
N1976      N1994   1.323       .  A
N1976      N1981   1.339       .  A
C1977      N1981   1.369       .  A
C1977      C2005   1.438       .  S
C1977      C3749   1.488       .  S
N1978      C1993   1.334       .  A
N1978     Co2000   2.057       .  S
C1979      N2007   1.340       .  A
C1979      C1982   1.462       .  S
C1979      H2013   1.081       .  S
C1982      N2003   1.344       .  A
C1982      C2626   1.465       .  S
N1983      N1989   1.321       .  A
N1984      C2010   1.334       .  A
N1984      N1986   1.314       .  A
N1984     Co2000   2.059       .  S
N1985      C1999   1.336       .  A
N1986      N2014   1.324       .  A
N1986     Co2004   2.065       .  S
H1987      C2010   1.081       .  S
H1988      C2005   1.081       .  S
N1990     Co2004   2.018       .  S
N1991      N2003   1.315       .  A
N1991      N2007   1.313       .  A
N1991     Co2000   2.051       .  S
C1992      N1996   1.331       .  A
C1992      C2006   1.501       .  S
C1992      C4279   1.508       .  S
C1993      C2012   1.461       .  S
C1993      H1997   1.080       .  S
N1994      C2005   1.328       .  A
N1994     Co2004   2.040       .  S
C1998      N2014   1.348       .  A
C1998      C2010   1.453       .  S
C1998      C3129   1.462       .  S
Co2000    Cl2011   2.447       .  S
N2001      C2012   1.348       .  A
C2002      C3919   1.503       .  S
Co2004    Cl2011   2.431       .  S
C2012      C2679   1.466       .  S
C2015      N2033   1.372       .  A
C2015      C2052   1.431       .  S
C2015      C2989   1.488       .  S
N2016      N2033   1.341       .  A
N2016      N2038   1.322       .  A
N2016     Co2053   2.174       .  S
C2017      N2042   1.338       .  A
C2017      C2055   1.462       .  S
C2017      H2062   1.080       .  S
H2018      C2059   1.082       .  S
C2019      N2043   1.335       .  A
C2019      C2023   1.453       .  S
C2019      H2048   1.080       .  S
Co2020     N2038   2.030       .  S
Co2020     N2028   2.062       .  S
Co2020     N2060   2.022       .  S
Co2020     N2036   2.068       .  S
Co2020    Cl2064   2.424       .  S
N2021      C2059   1.334       .  A
N2021      N2028   1.312       .  A
N2021     Co2022   2.058       .  S
Co2022     N2025   2.060       .  S
Co2022     N2042   2.066       .  S
Co2022     N2029   2.058       .  S
Co2022    Cl2064   2.468       .  S
C2023      N2061   1.348       .  A
C2023      C2699   1.458       .  S
N2024      N2031   1.323       .  A
N2024      N2054   1.318       .  A
N2024     Co2057   2.049       .  S
N2025      N2043   1.314       .  A
N2025      N2061   1.320       .  A
N2026      C2055   1.348       .  A
N2026      N2036   1.322       .  A
H2027      C2052   1.082       .  S
N2028      N2049   1.321       .  A
N2029      N2047   1.314       .  A
N2029      N2034   1.318       .  A
C2030      N2034   1.346       .  A
C2030      C2058   1.461       .  S
C2030      C2796   1.470       .  S
N2031      C2046   1.366       .  A
N2031     Co2053   2.179       .  S
C2032      N2060   1.322       .  A
C2032      C2035   1.430       .  S
C2032      H2066   1.081       .  S
C2035      N2056   1.377       .  A
C2035      C2619   1.497       .  S
N2036      N2042   1.313       .  A
N2037      C2063   1.367       .  A
N2037      N2039   1.322       .  A
N2037     Co2053   2.189       .  S
N2038      C2052   1.325       .  A
N2039      N2067   1.316       .  A
N2039     Co2057   2.036       .  S
H2040      C2063   1.082       .  S
H2041      C2058   1.079       .  S
N2043     Co2057   2.057       .  S
N2044      N2056   1.343       .  A
N2044      N2060   1.323       .  A
N2044     Co2053   2.191       .  S
C2045      N2049   1.348       .  A
C2045      C2059   1.461       .  S
C2045      C2659   1.469       .  S
C2046      C2065   1.495       .  S
C2046      H2050   1.082       .  S
N2047      C2058   1.340       .  A
N2047     Co2057   2.070       .  S
C2051      N2067   1.334       .  A
C2051      C2063   1.502       .  S
C2051      C2596   1.514       .  S
Co2053    Cl2064   2.472       .  S
N2054      C2065   1.334       .  A
C2055      C2606   1.475       .  S
Co2057    Cl2064   2.427       .  S
C2065      C2756   1.501       .  S
C2068      N2086   1.351       .  A
C2068      C2105   1.454       .  S
C2068      C2669   1.468       .  S
N2069      N2086   1.322       .  A
N2069      N2091   1.314       .  A
N2069     Co2106   2.074       .  S
C2070      N2095   1.362       .  A
C2070      C2108   1.497       .  S
C2070      H2115   1.081       .  S
H2071      C2112   1.081       .  S
C2072      N2096   1.324       .  A
C2072      C2076   1.430       .  S
C2072      H2101   1.081       .  S
Co2073     N2091   2.054       .  S
Co2073     N2081   2.036       .  S
Co2073     N2113   2.064       .  S
Co2073     N2089   2.033       .  S
Co2073    Cl2117   2.419       .  S
N2074      C2112   1.364       .  A
N2074      N2081   1.321       .  A
N2074     Co2075   2.170       .  S
Co2075     N2078   2.186       .  S
Co2075     N2095   2.171       .  S
Co2075     N2082   2.160       .  S
Co2075    Cl2117   2.483       .  S
C2076      N2114   1.374       .  A
C2076      C4259   1.491       .  S
N2077      N2084   1.315       .  A
N2077      N2107   1.326       .  A
N2077     Co2110   2.079       .  S
N2078      N2096   1.324       .  A
N2078      N2114   1.343       .  A
N2079      C2108   1.332       .  A
N2079      N2089   1.314       .  A
H2080      C2105   1.076       .  S
N2081      N2102   1.315       .  A
N2082      N2100   1.321       .  A
N2082      N2087   1.340       .  A
C2083      N2087   1.369       .  A
C2083      C2111   1.432       .  S
C2083      C2616   1.484       .  S
N2084      C2099   1.333       .  A
N2084     Co2106   2.054       .  S
C2085      N2113   1.337       .  A
C2085      C2088   1.456       .  S
C2085      H2119   1.077       .  S
C2088      N2109   1.347       .  A
C2088      C2839   1.468       .  S
N2089      N2095   1.322       .  A
N2090      C2116   1.338       .  A
N2090      N2092   1.315       .  A
N2090     Co2106   2.075       .  S
N2091      C2105   1.333       .  A
N2092      N2120   1.322       .  A
N2092     Co2110   2.064       .  S
H2093      C2116   1.081       .  S
H2094      C2111   1.082       .  S
N2096     Co2110   2.030       .  S
N2097      N2109   1.319       .  A
N2097      N2113   1.313       .  A
N2097     Co2106   2.055       .  S
C2098      N2102   1.333       .  A
C2098      C2112   1.497       .  S
C2098      C4389   1.505       .  S
C2099      C2118   1.452       .  S
C2099      H2103   1.081       .  S
N2100      C2111   1.326       .  A
N2100     Co2110   2.035       .  S
C2104      N2120   1.346       .  A
C2104      C2116   1.462       .  S
C2104      C2586   1.470       .  S
Co2106    Cl2117   2.461       .  S
N2107      C2118   1.350       .  A
C2108      C2576   1.503       .  S
Co2110    Cl2117   2.427       .  S
C2118      C2636   1.466       .  S
C2121      N2139   1.377       .  A
C2121      C2158   1.440       .  S
C2121      C4049   1.507       .  S
N2122      N2139   1.343       .  A
N2122      N2144   1.321       .  A
N2122     Co2159   2.190       .  S
C2123      N2148   1.338       .  A
C2123      C2161   1.463       .  S
C2123      H2168   1.082       .  S
H2124      C2165   1.081       .  S
C2125      N2149   1.340       .  A
C2125      C2129   1.459       .  S
C2125      H2154   1.080       .  S
Co2126     N2144   2.030       .  S
Co2126     N2134   2.078       .  S
Co2126     N2166   2.047       .  S
Co2126     N2142   2.056       .  S
Co2126    Cl2170   2.425       .  S
N2127      C2165   1.340       .  A
N2127      N2134   1.314       .  A
N2127     Co2128   2.067       .  S
Co2128     N2131   2.060       .  S
Co2128     N2148   2.067       .  S
Co2128     N2135   2.065       .  S
Co2128    Cl2170   2.457       .  S
C2129      N2167   1.345       .  A
C2129      C2629   1.466       .  S
N2130      N2137   1.323       .  A
N2130      N2160   1.318       .  A
N2130     Co2163   2.048       .  S
N2131      N2149   1.314       .  A
N2131      N2167   1.316       .  A
N2132      C2161   1.345       .  A
N2132      N2142   1.318       .  A
H2133      C2158   1.080       .  S
N2134      N2155   1.322       .  A
N2135      N2153   1.315       .  A
N2135      N2140   1.319       .  A
C2136      N2140   1.349       .  A
C2136      C2164   1.462       .  S
C2136      C2589   1.471       .  S
N2137      C2152   1.359       .  A
N2137     Co2159   2.162       .  S
C2138      N2166   1.331       .  A
C2138      C2141   1.438       .  S
C2138      H2172   1.081       .  S
C2141      N2162   1.371       .  A
C2141      C2809   1.492       .  S
N2142      N2148   1.314       .  A
N2143      C2169   1.369       .  A
N2143      N2145   1.322       .  A
N2143     Co2159   2.189       .  S
N2144      C2158   1.326       .  A
N2145      N2173   1.313       .  A
N2145     Co2163   2.027       .  S
H2146      C2169   1.082       .  S
H2147      C2164   1.080       .  S
N2149     Co2163   2.060       .  S
N2150      N2162   1.339       .  A
N2150      N2166   1.321       .  A
N2150     Co2159   2.164       .  S
C2151      N2155   1.350       .  A
C2151      C2165   1.461       .  S
C2151      C3119   1.478       .  S
C2152      C2171   1.489       .  S
C2152      H2156   1.082       .  S
N2153      C2164   1.342       .  A
N2153     Co2163   2.077       .  S
C2157      N2173   1.330       .  A
C2157      C2169   1.503       .  S
C2157      C2599   1.508       .  S
Co2159    Cl2170   2.478       .  S
N2160      C2171   1.338       .  A
C2161      C2849   1.465       .  S
Co2163    Cl2170   2.432       .  S
C2171      C3899   1.500       .  S
C2174      N2192   1.348       .  A
C2174      C2211   1.456       .  S
C2174      C2649   1.463       .  S
N2175      N2192   1.320       .  A
N2175      N2197   1.315       .  A
N2175     Co2212   2.063       .  S
C2176      N2201   1.364       .  A
C2176      C2214   1.496       .  S
C2176      H2221   1.082       .  S
H2177      C2218   1.081       .  S
C2178      N2202   1.325       .  A
C2178      C2182   1.436       .  S
C2178      H2207   1.081       .  S
Co2179     N2197   2.066       .  S
Co2179     N2187   2.035       .  S
Co2179     N2219   2.072       .  S
Co2179     N2195   2.025       .  S
Co2179    Cl2223   2.423       .  S
N2180      C2218   1.364       .  A
N2180      N2187   1.324       .  A
N2180     Co2181   2.179       .  S
Co2181     N2184   2.173       .  S
Co2181     N2201   2.172       .  S
Co2181     N2188   2.175       .  S
Co2181    Cl2223   2.483       .  S
C2182      N2220   1.375       .  A
C2182      C2739   1.498       .  S
N2183      N2190   1.314       .  A
N2183      N2213   1.316       .  A
N2183     Co2216   2.046       .  S
N2184      N2202   1.319       .  A
N2184      N2220   1.342       .  A
N2185      C2214   1.331       .  A
N2185      N2195   1.312       .  A
H2186      C2211   1.080       .  S
N2187      N2208   1.315       .  A
N2188      N2206   1.319       .  A
N2188      N2193   1.341       .  A
C2189      N2193   1.376       .  A
C2189      C2217   1.437       .  S
C2189      C2829   1.501       .  S
N2190      C2205   1.339       .  A
N2190     Co2212   2.067       .  S
C2191      N2219   1.342       .  A
C2191      C2194   1.461       .  S
C2191      H2225   1.078       .  S
C2194      N2215   1.347       .  A
C2194      C2609   1.469       .  S
N2195      N2201   1.322       .  A
N2196      C2222   1.337       .  A
N2196      N2198   1.313       .  A
N2196     Co2212   2.060       .  S
N2197      C2211   1.337       .  A
N2198      N2226   1.319       .  A
N2198     Co2216   2.060       .  S
H2199      C2222   1.081       .  S
H2200      C2217   1.080       .  S
N2202     Co2216   2.029       .  S
N2203      N2215   1.319       .  A
N2203      N2219   1.314       .  A
N2203     Co2212   2.063       .  S
C2204      N2208   1.331       .  A
C2204      C2218   1.495       .  S
C2204      C3189   1.495       .  S
C2205      C2224   1.463       .  S
C2205      H2209   1.081       .  S
N2206      C2217   1.323       .  A
N2206     Co2216   2.024       .  S
C2210      N2226   1.346       .  A
C2210      C2222   1.461       .  S
C2210      C2816   1.468       .  S
Co2212    Cl2223   2.464       .  S
N2213      C2224   1.341       .  A
C2214      C2579   1.500       .  S
Co2216    Cl2223   2.407       .  S
C2224      C2899   1.458       .  S
C2227      N2245   1.347       .  A
C2227      C2264   1.456       .  S
C2227      C2729   1.460   1_556  S
N2228      N2245   1.317       .  A
N2228      N2250   1.313       .  A
N2228     Co2265   2.054       .  S
C2229      N2254   1.364       .  A
C2229      C2267   1.495       .  S
C2229      H2274   1.082       .  S
H2230      C2271   1.082       .  S
C2231      N2255   1.329       .  A
C2231      C2235   1.434       .  S
C2231      H2260   1.082       .  S
Co2232     N2250   2.058       .  S
Co2232     N2240   2.028       .  S
Co2232     N2272   2.054       .  S
Co2232     N2248   2.041       .  S
Co2232    Cl2276   2.423       .  S
N2233      C2271   1.366       .  A
N2233      N2240   1.321       .  A
N2233     Co2234   2.178       .  S
Co2234     N2237   2.176       .  S
Co2234     N2254   2.174       .  S
Co2234     N2241   2.178       .  S
Co2234    Cl2276   2.473       .  S
C2235      N2273   1.372       .  A
C2235      C4129   1.489       .  S
N2236      N2243   1.314       .  A
N2236      N2266   1.321       .  A
N2236     Co2269   2.061       .  S
N2237      N2255   1.324       .  A
N2237      N2273   1.340       .  A
N2238      C2267   1.334       .  A
N2238      N2248   1.316       .  A
H2239      C2264   1.079       .  S
N2240      N2261   1.313       .  A
N2241      N2259   1.322       .  A
N2241      N2246   1.342       .  A
C2242      N2246   1.374       .  A
C2242      C2270   1.434       .  S
C2242      C4009   1.496       .  S
N2243      C2258   1.337   1_556  A
N2243     Co2265   2.063       .  S
C2244      N2272   1.335       .  A
C2244      C2247   1.455       .  S
C2244      H2278   1.075       .  S
C2247      N2268   1.349   1_556  A
C2247      C3056   1.468   1_556  S
N2248      N2254   1.323       .  A
N2249      C2275   1.335   1_556  A
N2249      N2251   1.314       .  A
N2249     Co2265   2.054       .  S
N2250      C2264   1.336       .  A
N2251      N2279   1.322       .  A
N2251     Co2269   2.072       .  S
H2252      C2275   1.081       .  S
H2253      C2270   1.081       .  S
N2255     Co2269   2.042       .  S
N2256      N2268   1.320   1_556  A
N2256      N2272   1.312       .  A
N2256     Co2265   2.061       .  S
C2257      N2261   1.331       .  A
C2257      C2271   1.501       .  S
C2257      C4219   1.508       .  S
C2258      C2277   1.459   1_554  S
C2258      H2262   1.081       .  S
N2259      C2270   1.323       .  A
N2259     Co2269   2.027       .  S
C2263      N2279   1.348       .  A
C2263      C2275   1.454   1_556  S
C2263      C3159   1.461   1_556  S
Co2265    Cl2276   2.467       .  S
N2266      C2277   1.346       .  A
C2267      C3949   1.502       .  S
Co2269    Cl2276   2.424       .  S
C2277      C2566   1.466   1_556  S
C2280      N2298   1.373       .  A
C2280      C2317   1.434       .  S
C2280      C4459   1.492       .  S
N2281      N2298   1.341       .  A
N2281      N2303   1.322       .  A
N2281     Co2318   2.179       .  S
C2282      N2307   1.334       .  A
C2282      C2320   1.457       .  S
C2282      H2327   1.081   1_565  S
H2283      C2324   1.081   1_545  S
C2284      N2308   1.341       .  A
C2284      C2288   1.462       .  S
C2284      H2313   1.081       .  S
Co2285     N2303   2.037       .  S
Co2285     N2293   2.068       .  S
Co2285     N2325   2.042       .  S
Co2285     N2301   2.073       .  S
Co2285    Cl2329   2.438       .  S
N2286      C2324   1.336       .  A
N2286      N2293   1.314       .  A
N2286     Co2287   2.064       .  S
Co2287     N2290   2.060       .  S
Co2287     N2307   2.063       .  S
Co2287     N2294   2.072       .  S
Co2287    Cl2329   2.461       .  S
C2288      N2326   1.346       .  A
C2288      C3079   1.467   1_565  S
N2289      N2296   1.322       .  A
N2289      N2319   1.315       .  A
N2289     Co2322   2.045       .  S
N2290      N2308   1.314       .  A
N2290      N2326   1.318       .  A
N2291      C2320   1.349       .  A
N2291      N2301   1.325       .  A
H2292      C2317   1.082       .  S
N2293      N2314   1.321       .  A
N2294      N2312   1.315       .  A
N2294      N2299   1.322       .  A
C2295      N2299   1.350       .  A
C2295      C2323   1.455       .  S
C2295      C2556   1.465   1_565  S
N2296      C2311   1.361       .  A
N2296     Co2318   2.160       .  S
C2297      N2325   1.330       .  A
C2297      C2300   1.436       .  S
C2297      H2331   1.081       .  S
C2300      N2321   1.369       .  A
C2300      C3516   1.484       .  S
N2301      N2307   1.315       .  A
N2302      C2328   1.366       .  A
N2302      N2304   1.322       .  A
N2302     Co2318   2.185       .  S
N2303      C2317   1.329       .  A
N2304      N2332   1.317       .  A
N2304     Co2322   2.038       .  S
H2305      C2328   1.082       .  S
H2306      C2323   1.080       .  S
N2308     Co2322   2.066       .  S
N2309      N2321   1.338       .  A
N2309      N2325   1.324       .  A
N2309     Co2318   2.168       .  S
C2310      N2314   1.348       .  A
C2310      C2324   1.460       .  S
C2310      C2779   1.471       .  S
C2311      C2330   1.491       .  S
C2311      H2315   1.082       .  S
N2312      C2323   1.336       .  A
N2312     Co2322   2.062       .  S
C2316      N2332   1.334       .  A
C2316      C2328   1.501       .  S
C2316      C3409   1.513       .  S
Co2318    Cl2329   2.466       .  S
N2319      C2330   1.337       .  A
C2320      C3379   1.471   1_565  S
Co2322    Cl2329   2.433       .  S
C2330      C4379   1.499       .  S
C2333      N2351   1.375       .  A
C2333      C2370   1.440       .  S
C2333      C4369   1.505       .  S
N2334      N2351   1.341       .  A
N2334      N2356   1.320       .  A
N2334     Co2371   2.178       .  S
C2335      N2360   1.336       .  A
C2335      C2373   1.459       .  S
C2335      H2380   1.082   1_556  S
H2336      C2377   1.082       .  S
C2337      N2361   1.332       .  A
C2337      C2341   1.451       .  S
C2337      H2366   1.101       .  S
Co2338     N2356   2.034       .  S
Co2338     N2346   2.063       .  S
Co2338     N2378   2.032       .  S
Co2338     N2354   2.064       .  S
Co2338    Cl2382   2.414       .  S
N2339      C2377   1.335   1_556  A
N2339      N2346   1.314       .  A
N2339     Co2340   2.057       .  S
Co2340     N2343   2.055       .  S
Co2340     N2360   2.058       .  S
Co2340     N2347   2.055       .  S
Co2340    Cl2382   2.473       .  S
C2341      N2379   1.348   1_556  A
C2341      C2749   1.464   1_556  S
N2342      N2349   1.324       .  A
N2342      N2372   1.313       .  A
N2342     Co2375   2.034       .  S
N2343      N2361   1.312       .  A
N2343      N2379   1.319   1_556  A
N2344      C2373   1.347       .  A
N2344      N2354   1.321       .  A
H2345      C2370   1.079       .  S
N2346      N2367   1.321       .  A
N2347      N2365   1.313       .  A
N2347      N2352   1.317       .  A
C2348      N2352   1.346       .  A
C2348      C2376   1.462       .  S
C2348      C2969   1.469   1_556  S
N2349      C2364   1.364       .  A
N2349     Co2371   2.176       .  S
C2350      N2378   1.323       .  A
C2350      C2353   1.431       .  S
C2350      H2384   1.081       .  S
C2353      N2374   1.376       .  A
C2353      C3769   1.496       .  S
N2354      N2360   1.312       .  A
N2355      C2381   1.361       .  A
N2355      N2357   1.323       .  A
N2355     Co2371   2.171       .  S
N2356      C2370   1.326       .  A
N2357      N2385   1.315       .  A
N2357     Co2375   2.028       .  S
H2358      C2381   1.082       .  S
H2359      C2376   1.079       .  S
N2361     Co2375   2.057       .  S
N2362      N2374   1.344       .  A
N2362      N2378   1.322       .  A
N2362     Co2371   2.184       .  S
C2363      N2367   1.347       .  A
C2363      C2377   1.456   1_556  S
C2363      C3239   1.462   1_556  S
C2364      C2383   1.497       .  S
C2364      H2368   1.081       .  S
N2365      C2376   1.339       .  A
N2365     Co2375   2.064       .  S
C2369      N2385   1.332       .  A
C2369      C2381   1.494       .  S
C2369      C3859   1.496       .  S
Co2371    Cl2382   2.480       .  S
N2372      C2383   1.331       .  A
C2373      C2546   1.465   1_556  S
Co2375    Cl2382   2.417       .  S
C2383      C4309   1.501       .  S
C2386      N2404   1.344       .  A
C2386      C2423   1.457       .  S
C2386      C2976   1.458   1_655  S
N2387      N2404   1.316       .  A
N2387      N2409   1.313       .  A
N2387     Co2424   2.051       .  S
C2388      N2413   1.365       .  A
C2388      C2426   1.498       .  S
C2388      H2433   1.082       .  S
H2389      C2430   1.081       .  S
C2390      N2414   1.324       .  A
C2390      C2394   1.437       .  S
C2390      H2419   1.080       .  S
Co2391     N2409   2.057       .  S
Co2391     N2399   2.037       .  S
Co2391     N2431   2.059       .  S
Co2391     N2407   2.032       .  S
Co2391    Cl2435   2.415       .  S
N2392      C2430   1.364       .  A
N2392      N2399   1.322       .  A
N2392     Co2393   2.176       .  S
Co2393     N2396   2.175       .  S
Co2393     N2413   2.179       .  S
Co2393     N2400   2.182       .  S
Co2393    Cl2435   2.492       .  S
C2394      N2432   1.374       .  A
C2394      C3779   1.498       .  S
N2395      N2402   1.314       .  A
N2395      N2425   1.322       .  A
N2395     Co2428   2.066       .  S
N2396      N2414   1.321       .  A
N2396      N2432   1.341       .  A
N2397      C2426   1.330       .  A
N2397      N2407   1.314       .  A
H2398      C2423   1.080       .  S
N2399      N2420   1.316       .  A
N2400      N2418   1.322       .  A
N2400      N2405   1.343       .  A
C2401      N2405   1.375       .  A
C2401      C2429   1.433       .  S
C2401      C3719   1.498       .  S
N2402      C2417   1.338       .  A
N2402     Co2424   2.062       .  S
C2403      N2431   1.333       .  A
C2403      C2406   1.454       .  S
C2403      H2437   1.073       .  S
C2406      N2427   1.350       .  A
C2406      C3216   1.468       .  S
N2407      N2413   1.323       .  A
N2408      C2434   1.336       .  A
N2408      N2410   1.313       .  A
N2408     Co2424   2.053       .  S
N2409      C2423   1.337       .  A
N2410      N2438   1.318       .  A
N2410     Co2428   2.056       .  S
H2411      C2434   1.082   1_455  S
H2412      C2429   1.082       .  S
N2414     Co2428   2.028       .  S
N2415      N2427   1.322       .  A
N2415      N2431   1.313       .  A
N2415     Co2424   2.061       .  S
C2416      N2420   1.335       .  A
C2416      C2430   1.498       .  S
C2416      C3806   1.508       .  S
C2417      C2436   1.457       .  S
C2417      H2421   1.080   1_655  S
N2418      C2429   1.327       .  A
N2418     Co2428   2.035       .  S
C2422      N2438   1.344       .  A
C2422      C2434   1.458       .  S
C2422      C3259   1.458       .  S
Co2424    Cl2435   2.467       .  S
N2425      C2436   1.346       .  A
C2426      C3659   1.501       .  S
Co2428    Cl2435   2.411       .  S
C2436      C2549   1.464       .  S
C2439      N2457   1.349       .  A
C2439      C2476   1.461       .  S
C2439      C3019   1.473       .  S
N2440      N2457   1.322       .  A
N2440      N2462   1.314       .  A
N2440     Co2477   2.069       .  S
C2441      N2466   1.361       .  A
C2441      C2479   1.494       .  S
C2441      H2486   1.081       .  S
H2442      C2483   1.082       .  S
C2443      N2467   1.329       .  A
C2443      C2447   1.435       .  S
C2443      H2472   1.081       .  S
Co2444     N2462   2.075       .  S
Co2444     N2452   2.019       .  S
Co2444     N2484   2.051       .  S
Co2444     N2460   2.044       .  S
Co2444    Cl2488   2.424       .  S
N2445      C2483   1.364       .  A
N2445      N2452   1.321       .  A
N2445     Co2446   2.170       .  S
Co2446     N2449   2.172       .  S
Co2446     N2466   2.171       .  S
Co2446     N2453   2.178       .  S
Co2446    Cl2488   2.480       .  S
C2447      N2485   1.372       .  A
C2447      C4019   1.490       .  S
N2448      N2455   1.316       .  A
N2448      N2478   1.325       .  A
N2448     Co2481   2.074       .  S
N2449      N2467   1.321       .  A
N2449      N2485   1.341       .  A
N2450      C2479   1.336       .  A
N2450      N2460   1.318       .  A
H2451      C2476   1.081       .  S
N2452      N2473   1.311       .  A
N2453      N2471   1.322       .  A
N2453      N2458   1.342       .  A
C2454      N2458   1.374       .  A
C2454      C2482   1.440       .  S
C2454      C3419   1.503       .  S
N2455      C2470   1.334       .  A
N2455     Co2477   2.069       .  S
C2456      N2484   1.332       .  A
C2456      C2459   1.454       .  S
C2456      H2490   1.077       .  S
C2459      N2480   1.354       .  A
C2459      C3369   1.475   1_655  S
N2460      N2466   1.323       .  A
N2461      C2487   1.337       .  A
N2461      N2463   1.316       .  A
N2461     Co2477   2.062       .  S
N2462      C2476   1.340       .  A
N2463      N2491   1.322       .  A
N2463     Co2481   2.071       .  S
H2464      C2487   1.081   1_455  S
H2465      C2482   1.081       .  S
N2467     Co2481   2.042       .  S
N2468      N2480   1.324       .  A
N2468      N2484   1.313       .  A
N2468     Co2477   2.078       .  S
C2469      N2473   1.328       .  A
C2469      C2483   1.496       .  S
C2469      C4096   1.492       .  S
C2470      C2489   1.459       .  S
C2470      H2474   1.081       .  S
N2471      C2482   1.328       .  A
N2471     Co2481   2.045       .  S
C2475      N2491   1.347       .  A
C2475      C2487   1.456       .  S
C2475      C2559   1.465   1_655  S
Co2477    Cl2488   2.461       .  S
N2478      C2489   1.350       .  A
C2479      C3459   1.506       .  S
Co2481    Cl2488   2.432       .  S
C2489      C3099   1.471       .  S
C2492      N2510   1.374       .  A
C2492      C2529   1.436       .  S
C2492      C4169   1.497       .  S
N2493      N2510   1.341       .  A
N2493      N2515   1.321       .  A
N2493     Co2530   2.173       .  S
C2494      N2519   1.338   1_545  A
C2494      C2532   1.460   1_545  S
C2494      H2539   1.082       .  S
H2495      C2536   1.080   1_545  S
C2496      N2520   1.342       .  A
C2496      C2500   1.462       .  S
C2496      H2525   1.081       .  S
Co2497     N2515   2.037       .  S
Co2497     N2505   2.061       .  S
Co2497     N2537   2.035       .  S
Co2497     N2513   2.060       .  S
Co2497    Cl2541   2.420       .  S
N2498      C2536   1.336       .  A
N2498      N2505   1.312       .  A
N2498     Co2499   2.065       .  S
Co2499     N2502   2.056       .  S
Co2499     N2519   2.059       .  S
Co2499     N2506   2.063       .  S
Co2499    Cl2541   2.463       .  S
C2500      N2538   1.345       .  A
C2500      C2569   1.462       .  S
N2501      N2508   1.324       .  A
N2501      N2531   1.314       .  A
N2501     Co2534   2.031       .  S
N2502      N2520   1.315       .  A
N2502      N2538   1.316       .  A
N2503      C2532   1.345       .  A
N2503      N2513   1.319       .  A
H2504      C2529   1.081       .  S
N2505      N2526   1.321       .  A
N2506      N2524   1.314       .  A
N2506      N2511   1.319       .  A
C2507      N2511   1.347       .  A
C2507      C2535   1.457       .  S
C2507      C3169   1.465   1_565  S
N2508      C2523   1.362       .  A
N2508     Co2530   2.172       .  S
C2509      N2537   1.326       .  A
C2509      C2512   1.442       .  S
C2509      H2543   1.078       .  S
C2512      N2533   1.375       .  A
C2512      C3589   1.506       .  S
N2513      N2519   1.313       .  A
N2514      C2540   1.362       .  A
N2514      N2516   1.325       .  A
N2514     Co2530   2.174       .  S
N2515      C2529   1.327       .  A
N2516      N2544   1.315       .  A
N2516     Co2534   2.036       .  S
H2517      C2540   1.082       .  S
H2518      C2535   1.079       .  S
N2520     Co2534   2.073       .  S
N2521      N2533   1.340       .  A
N2521      N2537   1.320       .  A
N2521     Co2530   2.172       .  S
C2522      N2526   1.348       .  A
C2522      C2536   1.465       .  S
C2522      C2719   1.474       .  S
C2523      C2542   1.491       .  S
C2523      H2527   1.081       .  S
N2524      C2535   1.341       .  A
N2524     Co2534   2.063       .  S
C2528      N2544   1.332       .  A
C2528      C2540   1.490       .  S
C2528      C3739   1.491       .  S
Co2530    Cl2541   2.470       .  S
N2531      C2542   1.330       .  A
C2532      C3316   1.466   1_565  S
Co2534    Cl2541   2.433       .  S
C2542      C4139   1.484       .  S
C2545      C2546   1.403       .  A
C2545      C2550   1.392       .  A
C2545      F2552   1.358       .  S
C2546      C2547   1.406       .  A
C2547      C2548   1.392   1_455  A
C2547      F2554   1.358   1_554  S
C2548      C2549   1.403       .  A
C2548      F2553   1.358       .  S
C2549      C2550   1.403   1_655  A
C2550      F2551   1.355       .  S
C2555      C2556   1.407       .  A
C2555      C2560   1.393       .  A
C2555      F2562   1.357   1_545  S
C2556      C2557   1.403       .  A
C2557      C2558   1.394       .  A
C2557      F2564   1.358       .  S
C2558      C2559   1.404       .  A
C2558      F2563   1.358       .  S
C2559      C2560   1.404       .  A
C2560      F2561   1.358   1_455  S
C2565      C2566   1.407       .  A
C2565      C2570   1.395   1_545  A
C2565      F2572   1.358   1_554  S
C2566      C2567   1.403       .  A
C2567      C2568   1.390       .  A
C2567      F2574   1.357       .  S
C2568      C2569   1.404   1_545  A
C2568      F2573   1.359       .  S
C2569      C2570   1.403       .  A
C2570      F2571   1.357       .  S
C2575      C2576   1.398       .  A
C2575      C2580   1.403       .  A
C2575      F2582   1.356       .  S
C2576      C2577   1.426       .  A
C2577      C2578   1.407       .  A
C2577      F2584   1.356       .  S
C2578      C2579   1.399       .  A
C2578      F2583   1.357       .  S
C2579      C2580   1.424       .  A
C2580      F2581   1.358       .  S
C2585      C2586   1.402       .  A
C2585      C2590   1.392       .  A
C2585      F2592   1.357       .  S
C2586      C2587   1.407       .  A
C2587      C2588   1.397       .  A
C2587      F2594   1.358       .  S
C2588      C2589   1.407       .  A
C2588      F2593   1.357       .  S
C2589      C2590   1.405       .  A
C2590      F2591   1.358       .  S
C2595      C2596   1.402       .  A
C2595      C2600   1.410       .  A
C2595      F2602   1.357       .  S
C2596      C2597   1.428       .  A
C2597      C2598   1.412       .  A
C2597      F2604   1.356       .  S
C2598      C2599   1.399       .  A
C2598      F2603   1.357       .  S
C2599      C2600   1.423       .  A
C2600      F2601   1.358       .  S
C2605      C2606   1.405       .  A
C2605      C2610   1.391       .  A
C2605      F2612   1.356       .  S
C2606      C2607   1.409       .  A
C2607      C2608   1.398       .  A
C2607      F2614   1.358       .  S
C2608      C2609   1.405       .  A
C2608      F2613   1.357       .  S
C2609      C2610   1.404       .  A
C2610      F2611   1.358       .  S
C2615      C2616   1.399       .  A
C2615      C2620   1.405       .  A
C2615      F2622   1.358       .  S
C2616      C2617   1.414       .  A
C2617      C2618   1.407       .  A
C2617      F2624   1.358       .  S
C2618      C2619   1.401       .  A
C2618      F2623   1.357       .  S
C2619      C2620   1.422       .  A
C2620      F2621   1.359       .  S
C2625      C2626   1.407       .  A
C2625      C2630   1.383       .  A
C2625      F2632   1.359       .  S
C2626      C2627   1.404       .  A
C2627      C2628   1.398       .  A
C2627      F2634   1.358       .  S
C2628      C2629   1.407       .  A
C2628      F2633   1.356       .  S
C2629      C2630   1.404       .  A
C2630      F2631   1.359       .  S
C2635      C2636   1.404       .  A
C2635      C2640   1.392       .  A
C2635      F2642   1.356       .  S
C2636      C2637   1.402       .  A
C2637      C2638   1.396       .  A
C2637      F2644   1.358       .  S
C2638      C2639   1.410       .  A
C2638      F2643   1.356       .  S
C2639      C2640   1.402       .  A
C2640      F2641   1.359       .  S
C2645      C2646   1.403       .  A
C2645      C2650   1.391       .  A
C2645      F2652   1.358       .  S
C2646      C2647   1.404       .  A
C2647      C2648   1.393       .  A
C2647      F2654   1.357       .  S
C2648      C2649   1.407       .  A
C2648      F2653   1.357       .  S
C2649      C2650   1.403       .  A
C2650      F2651   1.358       .  S
C2655      C2656   1.403       .  A
C2655      C2660   1.395       .  A
C2655      F2662   1.358       .  S
C2656      C2657   1.400       .  A
C2657      C2658   1.389       .  A
C2657      F2664   1.357       .  S
C2658      C2659   1.404       .  A
C2658      F2663   1.357       .  S
C2659      C2660   1.409       .  A
C2660      F2661   1.358       .  S
C2665      C2666   1.406       .  A
C2665      C2670   1.393       .  A
C2665      F2672   1.356       .  S
C2666      C2667   1.407       .  A
C2667      C2668   1.391       .  A
C2667      F2674   1.358       .  S
C2668      C2669   1.407       .  A
C2668      F2673   1.356       .  S
C2669      C2670   1.403       .  A
C2670      F2671   1.356       .  S
C2675      C2676   1.403       .  A
C2675      C2680   1.393       .  A
C2675      F2682   1.357       .  S
C2676      C2677   1.403       .  A
C2677      C2678   1.390       .  A
C2677      F2684   1.358       .  S
C2678      C2679   1.403       .  A
C2678      F2683   1.358       .  S
C2679      C2680   1.408       .  A
C2680      F2681   1.358       .  S
C2685      C2686   1.406       .  A
C2685      C2690   1.394       .  A
C2685      F2692   1.356       .  S
C2686      C2687   1.405       .  A
C2687      C2688   1.394       .  A
C2687      F2694   1.358       .  S
C2688      C2689   1.405       .  A
C2688      F2693   1.355       .  S
C2689      C2690   1.408       .  A
C2690      F2691   1.358       .  S
C2695      C2696   1.404       .  A
C2695      C2700   1.392       .  A
C2695      F2702   1.358       .  S
C2696      C2697   1.404       .  A
C2697      C2698   1.389       .  A
C2697      F2704   1.358       .  S
C2698      C2699   1.405       .  A
C2698      F2703   1.357       .  S
C2699      C2700   1.402       .  A
C2700      F2701   1.359       .  S
C2705      C2706   1.401       .  A
C2705      C2710   1.407       .  A
C2705      F2712   1.357       .  S
C2706      C2707   1.425       .  A
C2707      C2708   1.409       .  A
C2707      F2714   1.357       .  S
C2708      C2709   1.399       .  A
C2708      F2713   1.357       .  S
C2709      C2710   1.423       .  A
C2710      F2711   1.358       .  S
C2715      C2716   1.404       .  A
C2715      C2720   1.397   1_545  A
C2715      F2722   1.357       .  S
C2716      C2717   1.402       .  A
C2717      C2718   1.389       .  A
C2717      F2724   1.354       .  S
C2718      C2719   1.404   1_545  A
C2718      F2723   1.357       .  S
C2719      C2720   1.410       .  A
C2720      F2721   1.358       .  S
C2725      C2726   1.406       .  A
C2725      C2730   1.390       .  A
C2725      F2732   1.358       .  S
C2726      C2727   1.403       .  A
C2727      C2728   1.387       .  A
C2727      F2734   1.352       .  S
C2728      C2729   1.402       .  A
C2728      F2733   1.358       .  S
C2729      C2730   1.405       .  A
C2730      F2731   1.356   1_554  S
C2735      C2736   1.426       .  A
C2735      C2740   1.405       .  A
C2735      F2742   1.357       .  S
C2736      C2737   1.401       .  A
C2737      C2738   1.408       .  A
C2737      F2744   1.357       .  S
C2738      C2739   1.421       .  A
C2738      F2743   1.357       .  S
C2739      C2740   1.397       .  A
C2740      F2741   1.357       .  S
C2745      C2746   1.405       .  A
C2745      C2750   1.389       .  A
C2745      F2752   1.355       .  S
C2746      C2747   1.406       .  A
C2747      C2748   1.393       .  A
C2747      F2754   1.358       .  S
C2748      C2749   1.406       .  A
C2748      F2753   1.356   1_554  S
C2749      C2750   1.402       .  A
C2750      F2751   1.358       .  S
C2755      C2756   1.408       .  A
C2755      C2760   1.416       .  A
C2755      F2762   1.357       .  S
C2756      C2757   1.414       .  A
C2757      C2758   1.409       .  A
C2757      F2764   1.358       .  S
C2758      C2759   1.405       .  A
C2758      F2763   1.358       .  S
C2759      C2760   1.414       .  A
C2760      F2761   1.357       .  S
C2765      C2766   1.416       .  A
C2765      C2770   1.411       .  A
C2765      F2772   1.358       .  S
C2766      C2767   1.397       .  A
C2767      C2768   1.401       .  A
C2767      F2774   1.358       .  S
C2768      C2769   1.419       .  A
C2768      F2773   1.358       .  S
C2769      C2770   1.403       .  A
C2770      F2771   1.357       .  S
C2775      C2776   1.404       .  A
C2775      C2780   1.392       .  A
C2775      F2782   1.358       .  S
C2776      C2777   1.405       .  A
C2777      C2778   1.394   1_545  A
C2777      F2784   1.356       .  S
C2778      C2779   1.407       .  A
C2778      F2783   1.358       .  S
C2779      C2780   1.405   1_565  A
C2780      F2781   1.357       .  S
C2785      C2786   1.403       .  A
C2785      C2790   1.397       .  A
C2785      F2792   1.357       .  S
C2786      C2787   1.404       .  A
C2787      C2788   1.390       .  A
C2787      F2794   1.358       .  S
C2788      C2789   1.406       .  A
C2788      F2793   1.357       .  S
C2789      C2790   1.408       .  A
C2790      F2791   1.357       .  S
C2795      C2796   1.405       .  A
C2795      C2800   1.395       .  A
C2795      F2802   1.356       .  S
C2796      C2797   1.405       .  A
C2797      C2798   1.390       .  A
C2797      F2804   1.357       .  S
C2798      C2799   1.405       .  A
C2798      F2803   1.355       .  S
C2799      C2800   1.409       .  A
C2800      F2801   1.358       .  S
C2805      C2806   1.406       .  A
C2805      C2810   1.413       .  A
C2805      F2812   1.357       .  S
C2806      C2807   1.420       .  A
C2807      C2808   1.406       .  A
C2807      F2814   1.357       .  S
C2808      C2809   1.399       .  A
C2808      F2813   1.358       .  S
C2809      C2810   1.415       .  A
C2810      F2811   1.358       .  S
C2815      C2816   1.404       .  A
C2815      C2820   1.391       .  A
C2815      F2822   1.356       .  S
C2816      C2817   1.408       .  A
C2817      C2818   1.392       .  A
C2817      F2824   1.358       .  S
C2818      C2819   1.403       .  A
C2818      F2823   1.357       .  S
C2819      C2820   1.403       .  A
C2820      F2821   1.357       .  S
C2825      C2826   1.415       .  A
C2825      C2830   1.408       .  A
C2825      F2832   1.358       .  S
C2826      C2827   1.396       .  A
C2827      C2828   1.402       .  A
C2827      F2834   1.358       .  S
C2828      C2829   1.424       .  A
C2828      F2833   1.357       .  S
C2829      C2830   1.403       .  A
C2830      F2831   1.357       .  S
C2835      C2836   1.407       .  A
C2835      C2840   1.394       .  A
C2835      F2842   1.358       .  S
C2836      C2837   1.406       .  A
C2837      C2838   1.390       .  A
C2837      F2844   1.357       .  S
C2838      C2839   1.404       .  A
C2838      F2843   1.358       .  S
C2839      C2840   1.406       .  A
C2840      F2841   1.356       .  S
C2845      C2846   1.402       .  A
C2845      C2850   1.391       .  A
C2845      F2852   1.358       .  S
C2846      C2847   1.403       .  A
C2847      C2848   1.392       .  A
C2847      F2854   1.358       .  S
C2848      C2849   1.403       .  A
C2848      F2853   1.358       .  S
C2849      C2850   1.409       .  A
C2850      F2851   1.358       .  S
C2855      C2856   1.397       .  A
C2855      C2860   1.406       .  A
C2855      F2862   1.357       .  S
C2856      C2857   1.423       .  A
C2857      C2858   1.406       .  A
C2857      F2864   1.358       .  S
C2858      C2859   1.400       .  A
C2858      F2863   1.357       .  S
C2859      C2860   1.426       .  A
C2860      F2861   1.356       .  S
C2865      C2866   1.401       .  A
C2865      C2870   1.386       .  A
C2865      F2872   1.356       .  S
C2866      C2867   1.404       .  A
C2867      C2868   1.394       .  A
C2867      F2874   1.358       .  S
C2868      C2869   1.408       .  A
C2868      F2873   1.358       .  S
C2869      C2870   1.402       .  A
C2870      F2871   1.357       .  S
C2875      C2876   1.397       .  A
C2875      C2880   1.405       .  A
C2875      F2882   1.358       .  S
C2876      C2877   1.418       .  A
C2877      C2878   1.408       .  A
C2877      F2884   1.358       .  S
C2878      C2879   1.403       .  A
C2878      F2883   1.357       .  S
C2879      C2880   1.424       .  A
C2880      F2881   1.357       .  S
C2885      C2886   1.412       .  A
C2885      C2890   1.411       .  A
C2885      F2892   1.357       .  S
C2886      C2887   1.404       .  A
C2887      C2888   1.405       .  A
C2887      F2894   1.358       .  S
C2888      C2889   1.413       .  A
C2888      F2893   1.359       .  S
C2889      C2890   1.405       .  A
C2890      F2891   1.357       .  S
C2895      C2896   1.400       .  A
C2895      C2900   1.389       .  A
C2895      F2902   1.359       .  S
C2896      C2897   1.403       .  A
C2897      C2898   1.391       .  A
C2897      F2904   1.358       .  S
C2898      C2899   1.400       .  A
C2898      F2903   1.358       .  S
C2899      C2900   1.409       .  A
C2900      F2901   1.359       .  S
C2905      C2906   1.407       .  A
C2905      C2910   1.395       .  A
C2905      F2912   1.358       .  S
C2906      C2907   1.406       .  A
C2907      C2908   1.395       .  A
C2907      F2914   1.357       .  S
C2908      C2909   1.405       .  A
C2908      F2913   1.358       .  S
C2909      C2910   1.408       .  A
C2910      F2911   1.356       .  S
C2915      C2916   1.404       .  A
C2915      C2920   1.392       .  A
C2915      F2922   1.355       .  S
C2916      C2917   1.409       .  A
C2917      C2918   1.389       .  A
C2917      F2924   1.359       .  S
C2918      C2919   1.405       .  A
C2918      F2923   1.358       .  S
C2919      C2920   1.408       .  A
C2920      F2921   1.355       .  S
C2925      C2926   1.404       .  A
C2925      C2930   1.393       .  A
C2925      F2932   1.358       .  S
C2926      C2927   1.404       .  A
C2927      C2928   1.393       .  A
C2927      F2934   1.358       .  S
C2928      C2929   1.407       .  A
C2928      F2933   1.357       .  S
C2929      C2930   1.403       .  A
C2930      F2931   1.358       .  S
C2935      C2936   1.405       .  A
C2935      C2940   1.392       .  A
C2935      F2942   1.358       .  S
C2936      C2937   1.401       .  A
C2937      C2938   1.394       .  A
C2937      F2944   1.357       .  S
C2938      C2939   1.410       .  A
C2938      F2943   1.358       .  S
C2939      C2940   1.403       .  A
C2940      F2941   1.358       .  S
C2945      C2946   1.424       .  A
C2945      C2950   1.406       .  A
C2945      F2952   1.358       .  S
C2946      C2947   1.398       .  A
C2947      C2948   1.408       .  A
C2947      F2954   1.357       .  S
C2948      C2949   1.426       .  A
C2948      F2953   1.356       .  S
C2949      C2950   1.400       .  A
C2950      F2951   1.357       .  S
C2955      C2956   1.410       .  A
C2955      C2960   1.414       .  A
C2955      F2962   1.357       .  S
C2956      C2957   1.407       .  A
C2957      C2958   1.400       .  A
C2957      F2964   1.358       .  S
C2958      C2959   1.405       .  A
C2958      F2963   1.358       .  S
C2959      C2960   1.410       .  A
C2960      F2961   1.358       .  S
C2965      C2966   1.403       .  A
C2965      C2970   1.387       .  A
C2965      F2972   1.358       .  S
C2966      C2967   1.406       .  A
C2967      C2968   1.395   1_554  A
C2967      F2974   1.356       .  S
C2968      C2969   1.407   1_556  A
C2968      F2973   1.356       .  S
C2969      C2970   1.406       .  A
C2970      F2971   1.358       .  S
C2975      C2976   1.402       .  A
C2975      C2980   1.391       .  A
C2975      F2982   1.357   1_455  S
C2976      C2977   1.402       .  A
C2977      C2978   1.386       .  A
C2977      F2984   1.355       .  S
C2978      C2979   1.403       .  A
C2978      F2983   1.356       .  S
C2979      C2980   1.408       .  A
C2980      F2981   1.358       .  S
C2985      C2986   1.401       .  A
C2985      C2990   1.408       .  A
C2985      F2992   1.357       .  S
C2986      C2987   1.421       .  A
C2987      C2988   1.406       .  A
C2987      F2994   1.357       .  S
C2988      C2989   1.399       .  A
C2988      F2993   1.358       .  S
C2989      C2990   1.416       .  A
C2990      F2991   1.358       .  S
C2995      C2996   1.408       .  A
C2995      C3000   1.397       .  A
C2995      F3002   1.358       .  S
C2996      C2997   1.405       .  A
C2997      C2998   1.391       .  A
C2997      F3004   1.356       .  S
C2998      C2999   1.406       .  A
C2998      F3003   1.357       .  S
C2999      C3000   1.407       .  A
C3000      F3001   1.356       .  S
C3005      C3006   1.415       .  A
C3005      C3010   1.409       .  A
C3005      F3012   1.358       .  S
C3006      C3007   1.402       .  A
C3007      C3008   1.405       .  A
C3007      F3014   1.357       .  S
C3008      C3009   1.414       .  A
C3008      F3013   1.358       .  S
C3009      C3010   1.403       .  A
C3010      F3011   1.357       .  S
C3015      C3016   1.405       .  A
C3015      C3020   1.396   1_455  A
C3015      F3022   1.357       .  S
C3016      C3017   1.406       .  A
C3017      C3018   1.393       .  A
C3017      F3024   1.356       .  S
C3018      C3019   1.405   1_455  A
C3018      F3023   1.358       .  S
C3019      C3020   1.408       .  A
C3020      F3021   1.356       .  S
C3025      C3026   1.419       .  A
C3025      C3030   1.410       .  A
C3025      F3032   1.358       .  S
C3026      C3027   1.400       .  A
C3027      C3028   1.409       .  A
C3027      F3034   1.358       .  S
C3028      C3029   1.425       .  A
C3028      F3033   1.358       .  S
C3029      C3030   1.400       .  A
C3030      F3031   1.357       .  S
C3035      C3036   1.407       .  A
C3035      C3040   1.392       .  A
C3035      F3042   1.358       .  S
C3036      C3037   1.404       .  A
C3037      C3038   1.389       .  A
C3037      F3044   1.357       .  S
C3038      C3039   1.402       .  A
C3038      F3043   1.358       .  S
C3039      C3040   1.405       .  A
C3040      F3041   1.357       .  S
C3045      C3046   1.400       .  A
C3045      C3050   1.404       .  A
C3045      F3052   1.357       .  S
C3046      C3047   1.423       .  A
C3047      C3048   1.405       .  A
C3047      F3054   1.356       .  S
C3048      C3049   1.397       .  A
C3048      F3053   1.358       .  S
C3049      C3050   1.419       .  A
C3050      F3051   1.358       .  S
C3055      C3056   1.407       .  A
C3055      C3060   1.393       .  A
C3055      F3062   1.356   1_554  S
C3056      C3057   1.404       .  A
C3057      C3058   1.389       .  A
C3057      F3064   1.358       .  S
C3058      C3059   1.406       .  A
C3058      F3063   1.359       .  S
C3059      C3060   1.406       .  A
C3060      F3061   1.356       .  S
C3065      C3066   1.407       .  A
C3065      C3070   1.395       .  A
C3065      F3072   1.358       .  S
C3066      C3067   1.408       .  A
C3067      C3068   1.391       .  A
C3067      F3074   1.357       .  S
C3068      C3069   1.401       .  A
C3068      F3073   1.357       .  S
C3069      C3070   1.407       .  A
C3070      F3071   1.357       .  S
C3075      C3076   1.402       .  A
C3075      C3080   1.392       .  A
C3075      F3082   1.356       .  S
C3076      C3077   1.406       .  A
C3077      C3078   1.396       .  A
C3077      F3084   1.358       .  S
C3078      C3079   1.406       .  A
C3078      F3083   1.357   1_545  S
C3079      C3080   1.405       .  A
C3080      F3081   1.358       .  S
C3085      C3086   1.405       .  A
C3085      C3090   1.391       .  A
C3085      F3092   1.356       .  S
C3086      C3087   1.403       .  A
C3087      C3088   1.390       .  A
C3087      F3094   1.356       .  S
C3088      C3089   1.403       .  A
C3088      F3093   1.358       .  S
C3089      C3090   1.409       .  A
C3090      F3091   1.355       .  S
C3095      C3096   1.407       .  A
C3095      C3100   1.399   1_455  A
C3095      F3102   1.357       .  S
C3096      C3097   1.405       .  A
C3097      C3098   1.391       .  A
C3097      F3104   1.357       .  S
C3098      C3099   1.403   1_455  A
C3098      F3103   1.357   1_455  S
C3099      C3100   1.406       .  A
C3100      F3101   1.358       .  S
C3105      C3106   1.405       .  A
C3105      C3110   1.394       .  A
C3105      F3112   1.358       .  S
C3106      C3107   1.406       .  A
C3107      C3108   1.391       .  A
C3107      F3114   1.358       .  S
C3108      C3109   1.400       .  A
C3108      F3113   1.358       .  S
C3109      C3110   1.407       .  A
C3110      F3111   1.357       .  S
C3115      C3116   1.406       .  A
C3115      C3120   1.395       .  A
C3115      F3122   1.356       .  S
C3116      C3117   1.408       .  A
C3117      C3118   1.397       .  A
C3117      F3124   1.359       .  S
C3118      C3119   1.407       .  A
C3118      F3123   1.357       .  S
C3119      C3120   1.407       .  A
C3120      F3121   1.358       .  S
C3125      C3126   1.405       .  A
C3125      C3130   1.395       .  A
C3125      F3132   1.358       .  S
C3126      C3127   1.402       .  A
C3127      C3128   1.391       .  A
C3127      F3134   1.358       .  S
C3128      C3129   1.403       .  A
C3128      F3133   1.358       .  S
C3129      C3130   1.404       .  A
C3130      F3131   1.358       .  S
C3135      C3136   1.407       .  A
C3135      C3140   1.394       .  A
C3135      F3142   1.356       .  S
C3136      C3137   1.407       .  A
C3137      C3138   1.391       .  A
C3137      F3144   1.358       .  S
C3138      C3139   1.403       .  A
C3138      F3143   1.356       .  S
C3139      C3140   1.408       .  A
C3140      F3141   1.356       .  S
C3145      C3146   1.405       .  A
C3145      C3150   1.390       .  A
C3145      F3152   1.358       .  S
C3146      C3147   1.406       .  A
C3147      C3148   1.393       .  A
C3147      F3154   1.358       .  S
C3148      C3149   1.406       .  A
C3148      F3153   1.357       .  S
C3149      C3150   1.403       .  A
C3150      F3151   1.358       .  S
C3155      C3156   1.405       .  A
C3155      C3160   1.392       .  A
C3155      F3162   1.358       .  S
C3156      C3157   1.402       .  A
C3157      C3158   1.392       .  A
C3157      F3164   1.357       .  S
C3158      C3159   1.403       .  A
C3158      F3163   1.358       .  S
C3159      C3160   1.404       .  A
C3160      F3161   1.358   1_554  S
C3165      C3166   1.404       .  A
C3165      C3170   1.391       .  A
C3165      F3172   1.357       .  S
C3166      C3167   1.410       .  A
C3167      C3168   1.397       .  A
C3167      F3174   1.358       .  S
C3168      C3169   1.403       .  A
C3168      F3173   1.357   1_545  S
C3169      C3170   1.402       .  A
C3170      F3171   1.356       .  S
C3175      C3176   1.402       .  A
C3175      C3180   1.409       .  A
C3175      F3182   1.357       .  S
C3176      C3177   1.424       .  A
C3177      C3178   1.405       .  A
C3177      F3184   1.355       .  S
C3178      C3179   1.396       .  A
C3178      F3183   1.357       .  S
C3179      C3180   1.421       .  A
C3180      F3181   1.358       .  S
C3185      C3186   1.422       .  A
C3185      C3190   1.407       .  A
C3185      F3192   1.358       .  S
C3186      C3187   1.402       .  A
C3187      C3188   1.411       .  A
C3187      F3194   1.357       .  S
C3188      C3189   1.418       .  A
C3188      F3193   1.358       .  S
C3189      C3190   1.399       .  A
C3190      F3191   1.358       .  S
C3195      C3196   1.404       .  A
C3195      C3200   1.388       .  A
C3195      F3202   1.357       .  S
C3196      C3197   1.404       .  A
C3197      C3198   1.391       .  A
C3197      F3204   1.359       .  S
C3198      C3199   1.401       .  A
C3198      F3203   1.355       .  S
C3199      C3200   1.405       .  A
C3200      F3201   1.358       .  S
C3205      C3206   1.403       .  A
C3205      C3210   1.391       .  A
C3205      F3212   1.356       .  S
C3206      C3207   1.401       .  A
C3207      C3208   1.390       .  A
C3207      F3214   1.357       .  S
C3208      C3209   1.409       .  A
C3208      F3213   1.358       .  S
C3209      C3210   1.404       .  A
C3210      F3211   1.358       .  S
C3215      C3216   1.407       .  A
C3215      C3220   1.391   1_655  A
C3215      F3222   1.356       .  S
C3216      C3217   1.404   1_655  A
C3217      C3218   1.391       .  A
C3217      F3224   1.358       .  S
C3218      C3219   1.404       .  A
C3218      F3223   1.358       .  S
C3219      C3220   1.406       .  A
C3220      F3221   1.356       .  S
C3225      C3226   1.407       .  A
C3225      C3230   1.393       .  A
C3225      F3232   1.358       .  S
C3226      C3227   1.402       .  A
C3227      C3228   1.393       .  A
C3227      F3234   1.358       .  S
C3228      C3229   1.405       .  A
C3228      F3233   1.358       .  S
C3229      C3230   1.403       .  A
C3230      F3231   1.358       .  S
C3235      C3236   1.402       .  A
C3235      C3240   1.393       .  A
C3235      F3242   1.358       .  S
C3236      C3237   1.404       .  A
C3237      C3238   1.390       .  A
C3237      F3244   1.357       .  S
C3238      C3239   1.404       .  A
C3238      F3243   1.358   1_554  S
C3239      C3240   1.404       .  A
C3240      F3241   1.357       .  S
C3245      C3246   1.407       .  A
C3245      C3250   1.394       .  A
C3245      F3252   1.358       .  S
C3246      C3247   1.405       .  A
C3247      C3248   1.389       .  A
C3247      F3254   1.357       .  S
C3248      C3249   1.403       .  A
C3248      F3253   1.357       .  S
C3249      C3250   1.405       .  A
C3250      F3251   1.356       .  S
C3255      C3256   1.404       .  A
C3255      C3260   1.388   1_455  A
C3255      F3262   1.357       .  S
C3256      C3257   1.402       .  A
C3257      C3258   1.389       .  A
C3257      F3264   1.358       .  S
C3258      C3259   1.402   1_455  A
C3258      F3263   1.357       .  S
C3259      C3260   1.406       .  A
C3260      F3261   1.358       .  S
C3265      C3266   1.421       .  A
C3265      C3270   1.402       .  A
C3265      F3272   1.356       .  S
C3266      C3267   1.402       .  A
C3267      C3268   1.409       .  A
C3267      F3274   1.357       .  S
C3268      C3269   1.417       .  A
C3268      F3273   1.358       .  S
C3269      C3270   1.396       .  A
C3270      F3271   1.358       .  S
C3275      C3276   1.420       .  A
C3275      C3280   1.405       .  A
C3275      F3282   1.358       .  S
C3276      C3277   1.404       .  A
C3277      C3278   1.413       .  A
C3277      F3284   1.357       .  S
C3278      C3279   1.417       .  A
C3278      F3283   1.358       .  S
C3279      C3280   1.399       .  A
C3280      F3281   1.358       .  S
C3285      C3286   1.405       .  A
C3285      C3290   1.397       .  A
C3285      F3292   1.357       .  S
C3286      C3287   1.405       .  A
C3287      C3288   1.388       .  A
C3287      F3294   1.358       .  S
C3288      C3289   1.402       .  A
C3288      F3293   1.356       .  S
C3289      C3290   1.409       .  A
C3290      F3291   1.358       .  S
C3295      C3296   1.403       .  A
C3295      C3300   1.391       .  A
C3295      F3302   1.357       .  S
C3296      C3297   1.406       .  A
C3297      C3298   1.392       .  A
C3297      F3304   1.356       .  S
C3298      C3299   1.406       .  A
C3298      F3303   1.356       .  S
C3299      C3300   1.404       .  A
C3300      F3301   1.358       .  S
C3305      C3306   1.404       .  A
C3305      C3310   1.394       .  A
C3305      F3312   1.357       .  S
C3306      C3307   1.408       .  A
C3307      C3308   1.393       .  A
C3307      F3314   1.358       .  S
C3308      C3309   1.403       .  A
C3308      F3313   1.357       .  S
C3309      C3310   1.405       .  A
C3310      F3311   1.358       .  S
C3315      C3316   1.402       .  A
C3315      C3320   1.390       .  A
C3315      F3322   1.355       .  S
C3316      C3317   1.407       .  A
C3317      C3318   1.393       .  A
C3317      F3324   1.358   1_545  S
C3318      C3319   1.404       .  A
C3318      F3323   1.357       .  S
C3319      C3320   1.405       .  A
C3320      F3321   1.357       .  S
C3325      C3326   1.398       .  A
C3325      C3330   1.404       .  A
C3325      F3332   1.358       .  S
C3326      C3327   1.418       .  A
C3327      C3328   1.407       .  A
C3327      F3334   1.357       .  S
C3328      C3329   1.402       .  A
C3328      F3333   1.357       .  S
C3329      C3330   1.422       .  A
C3330      F3331   1.355       .  S
C3335      C3336   1.398       .  A
C3335      C3340   1.408       .  A
C3335      F3342   1.358       .  S
C3336      C3337   1.419       .  A
C3337      C3338   1.405       .  A
C3337      F3344   1.357       .  S
C3338      C3339   1.400       .  A
C3338      F3343   1.356       .  S
C3339      C3340   1.426       .  A
C3340      F3341   1.357       .  S
C3345      C3346   1.404       .  A
C3345      C3350   1.389       .  A
C3345      F3352   1.355       .  S
C3346      C3347   1.407       .  A
C3347      C3348   1.397       .  A
C3347      F3354   1.358       .  S
C3348      C3349   1.407       .  A
C3348      F3353   1.356       .  S
C3349      C3350   1.404       .  A
C3350      F3351   1.359       .  S
C3355      C3356   1.403       .  A
C3355      C3360   1.394       .  A
C3355      F3362   1.357       .  S
C3356      C3357   1.403       .  A
C3357      C3358   1.390       .  A
C3357      F3364   1.358       .  S
C3358      C3359   1.403       .  A
C3358      F3363   1.358       .  S
C3359      C3360   1.409       .  A
C3360      F3361   1.358       .  S
C3365      C3366   1.407       .  A
C3365      C3370   1.393       .  A
C3365      F3372   1.358       .  S
C3366      C3367   1.406       .  A
C3367      C3368   1.394   1_455  A
C3367      F3374   1.356       .  S
C3368      C3369   1.410   1_655  A
C3368      F3373   1.356       .  S
C3369      C3370   1.404       .  A
C3370      F3371   1.358       .  S
C3375      C3376   1.408       .  A
C3375      C3380   1.401       .  A
C3375      F3382   1.358       .  S
C3376      C3377   1.402       .  A
C3377      C3378   1.389       .  A
C3377      F3384   1.358       .  S
C3378      C3379   1.403       .  A
C3378      F3383   1.357       .  S
C3379      C3380   1.408       .  A
C3380      F3381   1.358   1_545  S
C3385      C3386   1.419       .  A
C3385      C3390   1.404       .  A
C3385      F3392   1.357       .  S
C3386      C3387   1.401       .  A
C3387      C3388   1.408       .  A
C3387      F3394   1.357       .  S
C3388      C3389   1.417       .  A
C3388      F3393   1.358       .  S
C3389      C3390   1.398       .  A
C3390      F3391   1.358       .  S
C3395      C3396   1.417       .  A
C3395      C3400   1.412       .  A
C3395      F3402   1.358       .  S
C3396      C3397   1.400       .  A
C3397      C3398   1.405       .  A
C3397      F3404   1.358       .  S
C3398      C3399   1.416       .  A
C3398      F3403   1.357       .  S
C3399      C3400   1.403       .  A
C3400      F3401   1.357       .  S
C3405      C3406   1.426       .  A
C3405      C3410   1.409   1_655  A
C3405      F3412   1.357       .  S
C3406      C3407   1.403       .  A
C3407      C3408   1.413   1_655  A
C3407      F3414   1.357       .  S
C3408      C3409   1.426       .  A
C3408      F3413   1.358       .  S
C3409      C3410   1.400       .  A
C3410      F3411   1.357       .  S
C3415      C3416   1.417       .  A
C3415      C3420   1.412   1_565  A
C3415      F3422   1.358       .  S
C3416      C3417   1.400       .  A
C3417      C3418   1.407   1_565  A
C3417      F3424   1.358       .  S
C3418      C3419   1.419       .  A
C3418      F3423   1.358       .  S
C3419      C3420   1.404       .  A
C3420      F3421   1.357       .  S
C3425      C3426   1.397       .  A
C3425      C3430   1.402       .  A
C3425      F3432   1.357       .  S
C3426      C3427   1.423       .  A
C3427      C3428   1.408       .  A
C3427      F3434   1.356       .  S
C3428      C3429   1.401       .  A
C3428      F3433   1.357       .  S
C3429      C3430   1.424       .  A
C3430      F3431   1.357       .  S
C3435      C3436   1.402       .  A
C3435      C3440   1.410       .  A
C3435      F3442   1.357       .  S
C3436      C3437   1.420       .  A
C3437      C3438   1.406       .  A
C3437      F3444   1.357       .  S
C3438      C3439   1.399       .  A
C3438      F3443   1.357       .  S
C3439      C3440   1.419       .  A
C3440      F3441   1.358       .  S
C3445      C3446   1.421       .  A
C3445      C3450   1.408   1_655  A
C3445      F3452   1.357       .  S
C3446      C3447   1.398       .  A
C3447      C3448   1.407   1_655  A
C3447      F3454   1.358       .  S
C3448      C3449   1.426       .  A
C3448      F3453   1.357       .  S
C3449      C3450   1.402       .  A
C3450      F3451   1.357       .  S
C3455      C3456   1.400       .  A
C3455      C3460   1.410       .  A
C3455      F3462   1.357       .  S
C3456      C3457   1.420       .  A
C3457      C3458   1.406       .  A
C3457      F3464   1.358       .  S
C3458      C3459   1.401       .  A
C3458      F3463   1.357       .  S
C3459      C3460   1.424       .  A
C3460      F3461   1.356       .  S
C3465      C3466   1.404   1_565  A
C3465      C3470   1.388       .  A
C3465      F3472   1.358       .  S
C3466      C3467   1.404       .  A
C3467      C3468   1.393   1_545  A
C3467      F3474   1.357       .  S
C3468      C3469   1.407       .  A
C3468      F3473   1.358       .  S
C3469      C3470   1.403       .  A
C3470      F3471   1.357       .  S
C3475      C3476   1.420       .  A
C3475      C3480   1.408       .  A
C3475      F3482   1.356       .  S
C3476      C3477   1.403       .  A
C3477      C3478   1.411       .  A
C3477      F3484   1.357       .  S
C3478      C3479   1.418       .  A
C3478      F3483   1.358       .  S
C3479      C3480   1.400       .  A
C3480      F3481   1.358       .  S
C3485      C3486   1.423       .  A
C3485      C3490   1.400       .  A
C3485      F3492   1.357       .  S
C3486      C3487   1.404       .  A
C3487      C3488   1.414       .  A
C3487      F3494   1.357       .  S
C3488      C3489   1.417       .  A
C3488      F3493   1.358       .  S
C3489      C3490   1.394       .  A
C3490      F3491   1.358       .  S
C3495      C3496   1.401       .  A
C3495      C3500   1.409   1_565  A
C3495      F3502   1.357       .  S
C3496      C3497   1.415       .  A
C3497      C3498   1.404   1_565  A
C3497      F3504   1.357       .  S
C3498      C3499   1.400       .  A
C3498      F3503   1.358       .  S
C3499      C3500   1.416       .  A
C3500      F3501   1.358       .  S
C3505      C3506   1.403   1_565  A
C3505      C3510   1.390       .  A
C3505      F3512   1.356       .  S
C3506      C3507   1.410       .  A
C3507      C3508   1.394   1_645  A
C3507      F3514   1.358       .  S
C3508      C3509   1.403       .  A
C3508      F3513   1.357   1_565  S
C3509      C3510   1.405   1_455  A
C3510      F3511   1.357       .  S
C3515      C3516   1.415       .  A
C3515      C3520   1.411       .  A
C3515      F3522   1.358       .  S
C3516      C3517   1.397       .  A
C3517      C3518   1.400       .  A
C3517      F3524   1.358       .  S
C3518      C3519   1.418       .  A
C3518      F3523   1.358       .  S
C3519      C3520   1.404       .  A
C3520      F3521   1.357       .  S
C3525      C3526   1.407       .  A
C3525      C3530   1.395   1_455  A
C3525      F3532   1.358       .  S
C3526      C3527   1.405   1_455  A
C3527      C3528   1.390       .  A
C3527      F3534   1.356       .  S
C3528      C3529   1.402       .  A
C3528      F3533   1.358       .  S
C3529      C3530   1.406       .  A
C3530      F3531   1.357       .  S
C3535      C3536   1.405       .  A
C3535      C3540   1.394       .  A
C3535      F3542   1.358       .  S
C3536      C3537   1.408       .  A
C3537      C3538   1.397       .  A
C3537      F3544   1.358       .  S
C3538      C3539   1.405       .  A
C3538      F3543   1.357       .  S
C3539      C3540   1.405       .  A
C3540      F3541   1.357       .  S
C3545      C3546   1.422       .  A
C3545      C3550   1.403       .  A
C3545      F3552   1.357       .  S
C3546      C3547   1.403       .  A
C3547      C3548   1.409       .  A
C3547      F3554   1.357       .  S
C3548      C3549   1.415       .  A
C3548      F3553   1.358       .  S
C3549      C3550   1.397       .  A
C3550      F3551   1.358       .  S
C3555      C3556   1.417       .  A
C3555      C3560   1.413       .  A
C3555      F3562   1.358       .  S
C3556      C3557   1.399       .  A
C3557      C3558   1.406       .  A
C3557      F3564   1.358       .  S
C3558      C3559   1.422       .  A
C3558      F3563   1.357       .  S
C3559      C3560   1.405       .  A
C3560      F3561   1.357       .  S
C3565      C3566   1.414       .  A
C3565      C3570   1.411   1_565  A
C3565      F3572   1.357       .  S
C3566      C3567   1.399       .  A
C3567      C3568   1.403   1_565  A
C3567      F3574   1.358       .  S
C3568      C3569   1.417       .  A
C3568      F3573   1.358       .  S
C3569      C3570   1.404       .  A
C3570      F3571   1.357       .  S
C3575      C3576   1.407       .  A
C3575      C3580   1.396   1_565  A
C3575      F3582   1.358       .  S
C3576      C3577   1.406       .  A
C3577      C3578   1.394       .  A
C3577      F3584   1.358       .  S
C3578      C3579   1.403   1_565  A
C3578      F3583   1.357       .  S
C3579      C3580   1.404       .  A
C3580      F3581   1.357       .  S
C3585      C3586   1.424       .  A
C3585      C3590   1.406       .  A
C3585      F3592   1.357       .  S
C3586      C3587   1.400       .  A
C3587      C3588   1.407       .  A
C3587      F3594   1.357       .  S
C3588      C3589   1.425       .  A
C3588      F3593   1.355       .  S
C3589      C3590   1.399       .  A
C3590      F3591   1.357       .  S
C3595      C3596   1.418       .  A
C3595      C3600   1.406       .  A
C3595      F3602   1.358       .  S
C3596      C3597   1.399       .  A
C3597      C3598   1.406       .  A
C3597      F3604   1.358       .  S
C3598      C3599   1.421       .  A
C3598      F3603   1.357       .  S
C3599      C3600   1.400       .  A
C3600      F3601   1.357       .  S
C3605      C3606   1.404       .  A
C3605      C3610   1.392       .  A
C3605      F3612   1.358       .  S
C3606      C3607   1.406       .  A
C3607      C3608   1.397       .  A
C3607      F3614   1.358       .  S
C3608      C3609   1.407       .  A
C3608      F3613   1.357       .  S
C3609      C3610   1.403       .  A
C3610      F3611   1.358       .  S
C3615      C3616   1.409       .  A
C3615      C3620   1.391       .  A
C3615      F3622   1.355       .  S
C3616      C3617   1.405       .  A
C3617      C3618   1.389       .  A
C3617      F3624   1.359       .  S
C3618      C3619   1.407       .  A
C3618      F3623   1.357       .  S
C3619      C3620   1.404       .  A
C3620      F3621   1.355       .  S
C3625      C3626   1.401       .  A
C3625      C3630   1.407       .  A
C3625      F3632   1.356       .  S
C3626      C3627   1.425       .  A
C3627      C3628   1.411       .  A
C3627      F3634   1.358       .  S
C3628      C3629   1.402       .  A
C3628      F3633   1.357       .  S
C3629      C3630   1.422       .  A
C3630      F3631   1.358       .  S
C3635      C3636   1.427       .  A
C3635      C3640   1.409   1_655  A
C3635      F3642   1.357       .  S
C3636      C3637   1.400       .  A
C3637      C3638   1.407   1_655  A
C3637      F3644   1.356       .  S
C3638      C3639   1.423       .  A
C3638      F3643   1.358       .  S
C3639      C3640   1.398       .  A
C3640      F3641   1.357       .  S
C3645      C3646   1.408       .  A
C3645      C3650   1.393       .  A
C3645      F3652   1.357       .  S
C3646      C3647   1.403       .  A
C3647      C3648   1.394       .  A
C3647      F3654   1.358       .  S
C3648      C3649   1.405       .  A
C3648      F3653   1.356       .  S
C3649      C3650   1.403       .  A
C3650      F3651   1.358   1_655  S
C3655      C3656   1.419       .  A
C3655      C3660   1.407       .  A
C3655      F3662   1.358       .  S
C3656      C3657   1.396       .  A
C3657      C3658   1.405       .  A
C3657      F3664   1.358       .  S
C3658      C3659   1.423       .  A
C3658      F3663   1.353       .  S
C3659      C3660   1.399       .  A
C3660      F3661   1.357       .  S
C3665      C3666   1.401       .  A
C3665      C3670   1.407   1_565  A
C3665      F3672   1.357       .  S
C3666      C3667   1.421       .  A
C3667      C3668   1.408   1_565  A
C3667      F3674   1.357       .  S
C3668      C3669   1.400       .  A
C3668      F3673   1.358       .  S
C3669      C3670   1.417       .  A
C3670      F3671   1.358       .  S
C3675      C3676   1.426       .  A
C3675      C3680   1.407   1_655  A
C3675      F3682   1.357       .  S
C3676      C3677   1.400       .  A
C3677      C3678   1.408   1_655  A
C3677      F3684   1.357       .  S
C3678      C3679   1.426       .  A
C3678      F3683   1.358       .  S
C3679      C3680   1.398       .  A
C3680      F3681   1.357       .  S
C3685      C3686   1.403       .  A
C3685      C3690   1.388       .  A
C3685      F3692   1.358       .  S
C3686      C3687   1.409       .  A
C3687      C3688   1.394   1_565  A
C3687      F3694   1.356       .  S
C3688      C3689   1.406   1_545  A
C3688      F3693   1.358       .  S
C3689      C3690   1.406       .  A
C3690      F3691   1.355       .  S
C3695      C3696   1.411       .  A
C3695      C3700   1.394   1_655  A
C3695      F3702   1.355       .  S
C3696      C3697   1.405       .  A
C3697      C3698   1.392       .  A
C3697      F3704   1.359       .  S
C3698      C3699   1.405   1_655  A
C3698      F3703   1.357       .  S
C3699      C3700   1.402       .  A
C3700      F3701   1.357       .  S
C3705      C3706   1.404       .  A
C3705      C3710   1.389       .  A
C3705      F3712   1.358       .  S
C3706      C3707   1.407       .  A
C3707      C3708   1.398       .  A
C3707      F3714   1.358       .  S
C3708      C3709   1.405       .  A
C3708      F3713   1.358       .  S
C3709      C3710   1.403       .  A
C3710      F3711   1.358       .  S
C3715      C3716   1.414       .  A
C3715      C3720   1.414       .  A
C3715      F3722   1.358       .  S
C3716      C3717   1.400       .  A
C3717      C3718   1.404       .  A
C3717      F3724   1.358       .  S
C3718      C3719   1.416       .  A
C3718      F3723   1.358       .  S
C3719      C3720   1.407       .  A
C3720      F3721   1.357       .  S
C3725      C3726   1.405       .  A
C3725      C3730   1.395       .  A
C3725      F3732   1.358       .  S
C3726      C3727   1.406       .  A
C3727      C3728   1.395       .  A
C3727      F3734   1.358       .  S
C3728      C3729   1.403       .  A
C3728      F3733   1.358       .  S
C3729      C3730   1.406       .  A
C3730      F3731   1.357       .  S
C3735      C3736   1.400       .  A
C3735      C3740   1.405       .  A
C3735      F3742   1.358       .  S
C3736      C3737   1.417       .  A
C3737      C3738   1.407       .  A
C3737      F3744   1.358       .  S
C3738      C3739   1.401       .  A
C3738      F3743   1.357       .  S
C3739      C3740   1.417       .  A
C3740      F3741   1.358       .  S
C3745      C3746   1.401       .  A
C3745      C3750   1.404       .  A
C3745      F3752   1.357       .  S
C3746      C3747   1.420       .  A
C3747      C3748   1.407       .  A
C3747      F3754   1.357       .  S
C3748      C3749   1.401       .  A
C3748      F3753   1.358       .  S
C3749      C3750   1.414       .  A
C3750      F3751   1.358       .  S
C3755      C3756   1.409       .  A
C3755      C3760   1.402       .  A
C3755      F3762   1.358       .  S
C3756      C3757   1.406       .  A
C3757      C3758   1.410       .  A
C3757      F3764   1.358       .  S
C3758      C3759   1.411       .  A
C3758      F3763   1.358       .  S
C3759      C3760   1.403       .  A
C3760      F3761   1.358       .  S
C3765      C3766   1.416       .  A
C3765      C3770   1.413   1_655  A
C3765      F3772   1.358       .  S
C3766      C3767   1.400       .  A
C3767      C3768   1.403   1_655  A
C3767      F3774   1.358       .  S
C3768      C3769   1.417       .  A
C3768      F3773   1.358       .  S
C3769      C3770   1.405       .  A
C3770      F3771   1.357       .  S
C3775      C3776   1.400       .  A
C3775      C3780   1.404   1_556  A
C3775      F3782   1.357       .  S
C3776      C3777   1.425   1_556  A
C3777      C3778   1.406       .  A
C3777      F3784   1.357   1_554  S
C3778      C3779   1.398       .  A
C3778      F3783   1.357       .  S
C3779      C3780   1.421       .  A
C3780      F3781   1.357       .  S
C3785      C3786   1.399       .  A
C3785      C3790   1.406       .  A
C3785      F3792   1.357       .  S
C3786      C3787   1.419       .  A
C3787      C3788   1.410       .  A
C3787      F3794   1.358       .  S
C3788      C3789   1.402       .  A
C3788      F3793   1.357       .  S
C3789      C3790   1.420       .  A
C3790      F3791   1.355       .  S
C3795      C3796   1.419       .  A
C3795      C3800   1.403       .  A
C3795      F3802   1.358       .  S
C3796      C3797   1.402       .  A
C3797      C3798   1.409       .  A
C3797      F3804   1.357       .  S
C3798      C3799   1.415       .  A
C3798      F3803   1.358       .  S
C3799      C3800   1.399       .  A
C3800      F3801   1.358       .  S
C3805      C3806   1.425       .  A
C3805      C3810   1.408       .  A
C3805      F3812   1.357       .  S
C3806      C3807   1.402       .  A
C3807      C3808   1.409       .  A
C3807      F3814   1.357       .  S
C3808      C3809   1.420       .  A
C3808      F3813   1.357       .  S
C3809      C3810   1.399       .  A
C3810      F3811   1.358       .  S
C3815      C3816   1.405       .  A
C3815      C3820   1.392   1_554  A
C3815      F3822   1.358       .  S
C3816      C3817   1.405   1_554  A
C3817      C3818   1.392       .  A
C3817      F3824   1.356       .  S
C3818      C3819   1.403       .  A
C3818      F3823   1.358       .  S
C3819      C3820   1.407       .  A
C3820      F3821   1.356       .  S
C3825      C3826   1.415       .  A
C3825      C3830   1.409   1_655  A
C3825      F3832   1.358       .  S
C3826      C3827   1.401       .  A
C3827      C3828   1.408   1_655  A
C3827      F3834   1.358       .  S
C3828      C3829   1.423       .  A
C3828      F3833   1.358       .  S
C3829      C3830   1.402       .  A
C3830      F3831   1.356       .  S
C3835      C3836   1.425       .  A
C3835      C3840   1.412       .  A
C3835      F3842   1.357       .  S
C3836      C3837   1.403       .  A
C3837      C3838   1.410       .  A
C3837      F3844   1.356       .  S
C3838      C3839   1.420       .  A
C3838      F3843   1.358       .  S
C3839      C3840   1.403       .  A
C3840      F3841   1.357       .  S
C3845      C3846   1.394       .  A
C3845      C3850   1.400       .  A
C3845      F3852   1.358       .  S
C3846      C3847   1.418       .  A
C3847      C3848   1.414       .  A
C3847      F3854   1.358       .  S
C3848      C3849   1.405       .  A
C3848      F3853   1.357       .  S
C3849      C3850   1.421       .  A
C3850      F3851   1.353       .  S
C3855      C3856   1.403       .  A
C3855      C3860   1.412       .  A
C3855      F3862   1.357       .  S
C3856      C3857   1.426       .  A
C3857      C3858   1.399       .  A
C3857      F3864   1.356       .  S
C3858      C3859   1.393       .  A
C3858      F3863   1.357       .  S
C3859      C3860   1.423       .  A
C3860      F3861   1.358       .  S
C3865      C3866   1.403       .  A
C3865      C3870   1.391       .  A
C3865      F3872   1.357       .  S
C3866      C3867   1.404       .  A
C3867      C3868   1.395   1_655  A
C3867      F3874   1.358       .  S
C3868      C3869   1.409       .  A
C3868      F3873   1.356       .  S
C3869      C3870   1.403   1_455  A
C3870      F3871   1.358       .  S
C3875      C3876   1.407       .  A
C3875      C3880   1.404   1_556  A
C3875      F3882   1.358       .  S
C3876      C3877   1.411       .  A
C3877      C3878   1.411   1_556  A
C3877      F3884   1.357       .  S
C3878      C3879   1.406       .  A
C3878      F3883   1.357       .  S
C3879      C3880   1.408       .  A
C3880      F3881   1.358       .  S
C3885      C3886   1.404   1_655  A
C3885      C3890   1.391   1_556  A
C3885      F3892   1.358       .  S
C3886      C3887   1.409   1_556  A
C3887      C3888   1.394   1_455  A
C3887      F3894   1.358       .  S
C3888      C3889   1.403       .  A
C3888      F3893   1.358       .  S
C3889      C3890   1.402       .  A
C3890      F3891   1.357       .  S
C3895      C3896   1.420       .  A
C3895      C3900   1.406       .  A
C3895      F3902   1.358       .  S
C3896      C3897   1.400       .  A
C3897      C3898   1.407       .  A
C3897      F3904   1.357       .  S
C3898      C3899   1.419       .  A
C3898      F3903   1.356       .  S
C3899      C3900   1.402       .  A
C3900      F3901   1.357       .  S
C3905      C3906   1.404       .  A
C3905      C3910   1.394       .  A
C3905      F3912   1.356       .  S
C3906      C3907   1.408       .  A
C3907      C3908   1.388       .  A
C3907      F3914   1.358       .  S
C3908      C3909   1.403       .  A
C3908      F3913   1.356       .  S
C3909      C3910   1.406       .  A
C3910      F3911   1.356       .  S
C3915      C3916   1.398       .  A
C3915      C3920   1.404       .  A
C3915      F3922   1.357       .  S
C3916      C3917   1.419       .  A
C3917      C3918   1.410       .  A
C3917      F3924   1.358       .  S
C3918      C3919   1.404       .  A
C3918      F3923   1.357       .  S
C3919      C3920   1.421       .  A
C3920      F3921   1.357       .  S
C3925      C3926   1.399       .  A
C3925      C3930   1.406   1_556  A
C3925      F3932   1.358       .  S
C3926      C3927   1.423   1_556  A
C3927      C3928   1.407       .  A
C3927      F3934   1.356   1_554  S
C3928      C3929   1.399       .  A
C3928      F3933   1.357       .  S
C3929      C3930   1.425       .  A
C3930      F3931   1.358       .  S
C3935      C3936   1.406       .  A
C3935      C3940   1.392   1_556  A
C3935      F3942   1.358       .  S
C3936      C3937   1.405       .  A
C3937      C3938   1.396       .  A
C3937      F3944   1.357       .  S
C3938      C3939   1.403   1_556  A
C3938      F3943   1.356       .  S
C3939      C3940   1.406       .  A
C3940      F3941   1.358       .  S
C3945      C3946   1.398       .  A
C3945      C3950   1.407       .  A
C3945      F3952   1.357       .  S
C3946      C3947   1.421       .  A
C3947      C3948   1.408       .  A
C3947      F3954   1.358       .  S
C3948      C3949   1.401       .  A
C3948      F3953   1.357       .  S
C3949      C3950   1.422       .  A
C3950      F3951   1.355       .  S
C3955      C3956   1.416       .  A
C3955      C3960   1.410   1_655  A
C3955      F3962   1.358       .  S
C3956      C3957   1.397       .  A
C3957      C3958   1.400   1_655  A
C3957      F3964   1.358       .  S
C3958      C3959   1.417       .  A
C3958      F3963   1.358       .  S
C3959      C3960   1.403       .  A
C3960      F3961   1.357       .  S
C3965      C3966   1.416       .  A
C3965      C3970   1.409   1_554  A
C3965      F3972   1.357       .  S
C3966      C3967   1.399       .  A
C3967      C3968   1.404   1_554  A
C3967      F3974   1.358       .  S
C3968      C3969   1.418       .  A
C3968      F3973   1.357       .  S
C3969      C3970   1.400       .  A
C3970      F3971   1.357       .  S
C3975      C3976   1.412   1_554  A
C3975      C3980   1.396       .  A
C3975      F3982   1.355       .  S
C3976      C3977   1.402       .  A
C3977      C3978   1.388       .  A
C3977      F3984   1.359       .  S
C3978      C3979   1.405   1_556  A
C3978      F3983   1.357       .  S
C3979      C3980   1.402       .  A
C3980      F3981   1.357       .  S
C3985      C3986   1.404       .  A
C3985      C3990   1.394       .  A
C3985      F3992   1.358       .  S
C3986      C3987   1.407       .  A
C3987      C3988   1.399       .  A
C3987      F3994   1.357       .  S
C3988      C3989   1.407       .  A
C3988      F3993   1.358   1_655  S
C3989      C3990   1.405       .  A
C3990      F3991   1.356       .  S
C3995      C3996   1.407       .  A
C3995      C4000   1.390       .  A
C3995      F4002   1.358       .  S
C3996      C3997   1.403       .  A
C3997      C3998   1.392       .  A
C3997      F4004   1.358       .  S
C3998      C3999   1.403       .  A
C3998      F4003   1.358       .  S
C3999      C4000   1.402       .  A
C4000      F4001   1.358       .  S
C4005      C4006   1.399       .  A
C4005      C4010   1.403       .  A
C4005      F4012   1.358       .  S
C4006      C4007   1.416       .  A
C4007      C4008   1.411       .  A
C4007      F4014   1.358       .  S
C4008      C4009   1.402       .  A
C4008      F4013   1.357       .  S
C4009      C4010   1.418       .  A
C4010      F4011   1.358       .  S
C4015      C4016   1.408       .  A
C4015      C4020   1.414       .  A
C4015      F4022   1.357       .  S
C4016      C4017   1.411       .  A
C4017      C4018   1.406       .  A
C4017      F4024   1.358       .  S
C4018      C4019   1.405       .  A
C4018      F4023   1.358       .  S
C4019      C4020   1.412       .  A
C4020      F4021   1.357       .  S
C4025      C4026   1.418       .  A
C4025      C4030   1.406       .  A
C4025      F4032   1.358       .  S
C4026      C4027   1.398       .  A
C4027      C4028   1.408       .  A
C4027      F4034   1.358       .  S
C4028      C4029   1.425       .  A
C4028      F4033   1.357       .  S
C4029      C4030   1.402       .  A
C4030      F4031   1.356       .  S
C4035      C4036   1.409       .  A
C4035      C4040   1.394       .  A
C4035      F4042   1.356       .  S
C4036      C4037   1.405       .  A
C4037      C4038   1.389       .  A
C4037      F4044   1.359       .  S
C4038      C4039   1.403       .  A
C4038      F4043   1.357       .  S
C4039      C4040   1.403       .  A
C4040      F4041   1.357       .  S
C4045      C4046   1.397       .  A
C4045      C4050   1.406       .  A
C4045      F4052   1.358       .  S
C4046      C4047   1.418       .  A
C4047      C4048   1.411       .  A
C4047      F4054   1.358       .  S
C4048      C4049   1.404       .  A
C4048      F4053   1.357       .  S
C4049      C4050   1.424       .  A
C4050      F4051   1.357       .  S
C4055      C4056   1.402       .  A
C4055      C4060   1.391       .  A
C4055      F4062   1.358       .  S
C4056      C4057   1.400       .  A
C4057      C4058   1.390       .  A
C4057      F4064   1.356       .  S
C4058      C4059   1.404       .  A
C4058      F4063   1.358       .  S
C4059      C4060   1.407       .  A
C4060      F4061   1.358       .  S
C4065      C4066   1.404       .  A
C4065      C4070   1.411   1_655  A
C4065      F4072   1.357       .  S
C4066      C4067   1.419       .  A
C4067      C4068   1.404   1_655  A
C4067      F4074   1.358       .  S
C4068      C4069   1.399       .  A
C4068      F4073   1.358       .  S
C4069      C4070   1.415       .  A
C4070      F4071   1.358       .  S
C4075      C4076   1.407       .  A
C4075      C4080   1.391       .  A
C4075      F4082   1.358       .  S
C4076      C4077   1.405       .  A
C4077      C4078   1.392       .  A
C4077      F4084   1.357       .  S
C4078      C4079   1.402       .  A
C4078      F4083   1.357       .  S
C4079      C4080   1.404       .  A
C4080      F4081   1.357   1_655  S
C4085      C4086   1.407       .  A
C4085      C4090   1.389       .  A
C4085      F4092   1.358       .  S
C4086      C4087   1.402       .  A
C4087      C4088   1.388       .  A
C4087      F4094   1.358       .  S
C4088      C4089   1.403       .  A
C4088      F4093   1.358       .  S
C4089      C4090   1.402       .  A
C4090      F4091   1.357       .  S
C4095      C4096   1.396       .  A
C4095      C4100   1.405       .  A
C4095      F4102   1.358       .  S
C4096      C4097   1.421       .  A
C4097      C4098   1.405       .  A
C4097      F4104   1.358       .  S
C4098      C4099   1.399       .  A
C4098      F4103   1.357       .  S
C4099      C4100   1.424       .  A
C4100      F4101   1.355       .  S
C4105      C4106   1.409       .  A
C4105      C4110   1.412       .  A
C4105      F4112   1.357       .  S
C4106      C4107   1.406       .  A
C4107      C4108   1.403       .  A
C4107      F4114   1.358       .  S
C4108      C4109   1.410       .  A
C4108      F4113   1.358       .  S
C4109      C4110   1.408       .  A
C4110      F4111   1.357       .  S
C4115      C4116   1.399       .  A
C4115      C4120   1.407       .  A
C4115      F4122   1.357       .  S
C4116      C4117   1.426       .  A
C4117      C4118   1.401       .  A
C4117      F4124   1.355       .  S
C4118      C4119   1.395       .  A
C4118      F4123   1.357       .  S
C4119      C4120   1.425       .  A
C4120      F4121   1.358       .  S
C4125      C4126   1.404       .  A
C4125      C4130   1.411   1_565  A
C4125      F4132   1.357       .  S
C4126      C4127   1.416       .  A
C4127      C4128   1.405   1_565  A
C4127      F4134   1.358       .  S
C4128      C4129   1.401       .  A
C4128      F4133   1.358       .  S
C4129      C4130   1.415       .  A
C4130      F4131   1.358       .  S
C4135      C4136   1.402       .  A
C4135      C4140   1.409   1_556  A
C4135      F4142   1.357       .  S
C4136      C4137   1.417   1_556  A
C4137      C4138   1.403       .  A
C4137      F4144   1.358   1_554  S
C4138      C4139   1.399       .  A
C4138      F4143   1.358       .  S
C4139      C4140   1.416       .  A
C4140      F4141   1.358       .  S
C4145      C4146   1.402       .  A
C4145      C4150   1.409       .  A
C4145      F4152   1.357       .  S
C4146      C4147   1.423       .  A
C4147      C4148   1.404       .  A
C4147      F4154   1.356       .  S
C4148      C4149   1.397       .  A
C4148      F4153   1.358       .  S
C4149      C4150   1.419       .  A
C4150      F4151   1.358       .  S
C4155      C4156   1.400       .  A
C4155      C4160   1.403       .  A
C4155      F4162   1.358       .  S
C4156      C4157   1.414       .  A
C4157      C4158   1.408       .  A
C4157      F4164   1.357       .  S
C4158      C4159   1.401       .  A
C4158      F4163   1.357       .  S
C4159      C4160   1.418       .  A
C4160      F4161   1.359       .  S
C4165      C4166   1.425       .  A
C4165      C4170   1.405       .  A
C4165      F4172   1.355       .  S
C4166      C4167   1.403       .  A
C4167      C4168   1.411       .  A
C4167      F4174   1.357       .  S
C4168      C4169   1.420       .  A
C4168      F4173   1.358       .  S
C4169      C4170   1.396       .  A
C4170      F4171   1.358       .  S
C4175      C4176   1.401   1_556  A
C4175      C4180   1.390       .  A
C4175      F4182   1.358       .  S
C4176      C4177   1.411       .  A
C4177      C4178   1.396   1_554  A
C4177      F4184   1.356       .  S
C4178      C4179   1.403       .  A
C4178      F4183   1.358       .  S
C4179      C4180   1.403       .  A
C4180      F4181   1.354       .  S
C4185      C4186   1.398       .  A
C4185      C4190   1.406   1_565  A
C4185      F4192   1.357       .  S
C4186      C4187   1.421       .  A
C4187      C4188   1.411   1_565  A
C4187      F4194   1.358       .  S
C4188      C4189   1.402       .  A
C4188      F4193   1.357       .  S
C4189      C4190   1.419       .  A
C4190      F4191   1.355       .  S
C4195      C4196   1.425       .  A
C4195      C4200   1.407       .  A
C4195      F4202   1.357       .  S
C4196      C4197   1.399       .  A
C4197      C4198   1.403       .  A
C4197      F4204   1.357       .  S
C4198      C4199   1.424       .  A
C4198      F4203   1.358       .  S
C4199      C4200   1.398       .  A
C4200      F4201   1.357       .  S
C4205      C4206   1.421       .  A
C4205      C4210   1.402       .  A
C4205      F4212   1.358       .  S
C4206      C4207   1.402       .  A
C4207      C4208   1.408       .  A
C4207      F4214   1.357       .  S
C4208      C4209   1.413       .  A
C4208      F4213   1.358       .  S
C4209      C4210   1.397       .  A
C4210      F4211   1.358       .  S
C4215      C4216   1.423       .  A
C4215      C4220   1.408       .  A
C4215      F4222   1.357       .  S
C4216      C4217   1.397       .  A
C4217      C4218   1.407       .  A
C4217      F4224   1.358       .  S
C4218      C4219   1.427       .  A
C4218      F4223   1.357       .  S
C4219      C4220   1.400       .  A
C4220      F4221   1.357       .  S
C4225      C4226   1.403   1_565  A
C4225      C4230   1.390       .  A
C4225      F4232   1.358       .  S
C4226      C4227   1.406   1_545  A
C4227      C4228   1.387       .  A
C4227      F4234   1.358   1_565  S
C4228      C4229   1.401       .  A
C4228      F4233   1.358       .  S
C4229      C4230   1.400       .  A
C4230      F4231   1.355       .  S
C4235      C4236   1.404       .  A
C4235      C4240   1.413   1_556  A
C4235      F4242   1.357       .  S
C4236      C4237   1.424   1_556  A
C4237      C4238   1.405       .  A
C4237      F4244   1.353   1_554  S
C4238      C4239   1.396       .  A
C4238      F4243   1.357       .  S
C4239      C4240   1.423       .  A
C4240      F4241   1.357       .  S
C4245      C4246   1.404       .  A
C4245      C4250   1.390   1_546  A
C4245      F4252   1.357       .  S
C4246      C4247   1.402   1_545  A
C4247      C4248   1.390   1_556  A
C4247      F4254   1.358   1_565  S
C4248      C4249   1.403       .  A
C4248      F4253   1.358       .  S
C4249      C4250   1.406       .  A
C4250      F4251   1.358       .  S
C4255      C4256   1.401       .  A
C4255      C4260   1.403       .  A
C4255      F4262   1.358       .  S
C4256      C4257   1.414       .  A
C4257      C4258   1.412       .  A
C4257      F4264   1.358       .  S
C4258      C4259   1.405       .  A
C4258      F4263   1.357       .  S
C4259      C4260   1.414       .  A
C4260      F4261   1.358       .  S
C4265      C4266   1.404       .  A
C4265      C4270   1.392       .  A
C4265      F4272   1.357       .  S
C4266      C4267   1.407       .  A
C4267      C4268   1.396       .  A
C4267      F4274   1.358       .  S
C4268      C4269   1.407       .  A
C4268      F4273   1.356       .  S
C4269      C4270   1.405       .  A
C4270      F4271   1.358       .  S
C4275      C4276   1.423       .  A
C4275      C4280   1.408       .  A
C4275      F4282   1.358       .  S
C4276      C4277   1.396       .  A
C4277      C4278   1.406       .  A
C4277      F4284   1.357       .  S
C4278      C4279   1.428       .  A
C4278      F4283   1.356       .  S
C4279      C4280   1.400       .  A
C4280      F4281   1.357       .  S
C4285      C4286   1.401       .  A
C4285      C4290   1.405   1_556  A
C4285      F4292   1.357       .  S
C4286      C4287   1.420   1_556  A
C4287      C4288   1.407       .  A
C4287      F4294   1.357   1_554  S
C4288      C4289   1.400       .  A
C4288      F4293   1.358       .  S
C4289      C4290   1.416       .  A
C4290      F4291   1.358       .  S
C4295      C4296   1.407       .  A
C4295      C4300   1.391       .  A
C4295      F4302   1.358       .  S
C4296      C4297   1.407       .  A
C4297      C4298   1.392   1_556  A
C4297      F4304   1.355       .  S
C4298      C4299   1.407       .  A
C4298      F4303   1.355       .  S
C4299      C4300   1.407   1_554  A
C4300      F4301   1.358       .  S
C4305      C4306   1.395       .  A
C4305      C4310   1.403       .  A
C4305      F4312   1.358       .  S
C4306      C4307   1.421       .  A
C4307      C4308   1.407       .  A
C4307      F4314   1.357       .  S
C4308      C4309   1.400       .  A
C4308      F4313   1.357       .  S
C4309      C4310   1.424       .  A
C4310      F4311   1.355       .  S
C4315      C4316   1.418       .  A
C4315      C4320   1.409   1_565  A
C4315      F4322   1.358       .  S
C4316      C4317   1.405       .  A
C4317      C4318   1.414   1_565  A
C4317      F4324   1.357       .  S
C4318      C4319   1.416       .  A
C4318      F4323   1.358       .  S
C4319      C4320   1.402       .  A
C4320      F4321   1.358       .  S
C4325      C4326   1.403       .  A
C4325      C4330   1.410   1_554  A
C4325      F4332   1.357       .  S
C4326      C4327   1.421       .  A
C4327      C4328   1.404   1_554  A
C4327      F4334   1.356       .  S
C4328      C4329   1.396       .  A
C4328      F4333   1.357       .  S
C4329      C4330   1.419       .  A
C4330      F4331   1.358       .  S
C4335      C4336   1.406       .  A
C4335      C4340   1.395   1_554  A
C4335      F4342   1.358       .  S
C4336      C4337   1.402   1_554  A
C4337      C4338   1.392       .  A
C4337      F4344   1.358   1_556  S
C4338      C4339   1.407       .  A
C4338      F4343   1.358       .  S
C4339      C4340   1.405       .  A
C4340      F4341   1.358       .  S
C4345      C4346   1.408       .  A
C4345      C4350   1.396   1_565  A
C4345      F4352   1.358       .  S
C4346      C4347   1.403       .  A
C4347      C4348   1.389       .  A
C4347      F4354   1.356       .  S
C4348      C4349   1.405   1_565  A
C4348      F4353   1.359       .  S
C4349      C4350   1.404       .  A
C4350      F4351   1.356       .  S
C4355      C4356   1.407       .  A
C4355      C4360   1.393       .  A
C4355      F4362   1.358       .  S
C4356      C4357   1.408       .  A
C4357      C4358   1.398       .  A
C4357      F4364   1.356       .  S
C4358      C4359   1.406       .  A
C4358      F4363   1.358       .  S
C4359      C4360   1.404       .  A
C4360      F4361   1.357       .  S
C4365      C4366   1.400       .  A
C4365      C4370   1.408       .  A
C4365      F4372   1.357       .  S
C4366      C4367   1.425       .  A
C4367      C4368   1.407       .  A
C4367      F4374   1.357       .  S
C4368      C4369   1.399       .  A
C4368      F4373   1.357       .  S
C4369      C4370   1.424       .  A
C4370      F4371   1.356       .  S
C4375      C4376   1.424       .  A
C4375      C4380   1.408       .  A
C4375      F4382   1.358       .  S
C4376      C4377   1.402       .  A
C4377      C4378   1.405       .  A
C4377      F4384   1.356       .  S
C4378      C4379   1.419       .  A
C4378      F4383   1.358       .  S
C4379      C4380   1.401       .  A
C4380      F4381   1.357       .  S
C4385      C4386   1.418       .  A
C4385      C4390   1.407       .  A
C4385      F4392   1.358       .  S
C4386      C4387   1.397       .  A
C4387      C4388   1.406       .  A
C4387      F4394   1.358       .  S
C4388      C4389   1.426       .  A
C4388      F4393   1.357       .  S
C4389      C4390   1.402       .  A
C4390      F4391   1.356       .  S
C4395      C4396   1.401       .  A
C4395      C4400   1.409       .  A
C4395      F4402   1.357       .  S
C4396      C4397   1.413       .  A
C4397      C4398   1.400       .  A
C4397      F4404   1.357       .  S
C4398      C4399   1.400       .  A
C4398      F4403   1.358       .  S
C4399      C4400   1.413       .  A
C4400      F4401   1.357       .  S
C4405      C4406   1.403       .  A
C4405      C4410   1.391       .  A
C4405      F4412   1.358       .  S
C4406      C4407   1.407       .  A
C4407      C4408   1.394       .  A
C4407      F4414   1.358       .  S
C4408      C4409   1.405       .  A
C4408      F4413   1.358       .  S
C4409      C4410   1.402       .  A
C4410      F4411   1.358       .  S
C4415      C4416   1.405       .  A
C4415      C4420   1.389       .  A
C4415      F4422   1.359       .  S
C4416      C4417   1.406       .  A
C4417      C4418   1.395       .  A
C4417      F4424   1.356       .  S
C4418      C4419   1.409       .  A
C4418      F4423   1.356       .  S
C4419      C4420   1.404       .  A
C4420      F4421   1.358       .  S
C4425      C4426   1.424       .  A
C4425      C4430   1.407   1_565  A
C4425      F4432   1.356       .  S
C4426      C4427   1.399       .  A
C4427      C4428   1.403   1_565  A
C4427      F4434   1.357       .  S
C4428      C4429   1.421       .  A
C4428      F4433   1.358       .  S
C4429      C4430   1.398       .  A
C4430      F4431   1.357       .  S
C4435      C4436   1.400       .  A
C4435      C4440   1.392       .  A
C4435      F4442   1.358       .  S
C4436      C4437   1.402       .  A
C4437      C4438   1.391       .  A
C4437      F4444   1.357       .  S
C4438      C4439   1.404       .  A
C4438      F4443   1.357       .  S
C4439      C4440   1.410       .  A
C4440      F4441   1.358   1_565  S
C4445      C4446   1.403       .  A
C4445      C4450   1.389       .  A
C4445      F4452   1.356       .  S
C4446      C4447   1.407       .  A
C4447      C4448   1.391       .  A
C4447      F4454   1.358       .  S
C4448      C4449   1.404       .  A
C4448      F4453   1.356       .  S
C4449      C4450   1.406       .  A
C4450      F4451   1.357       .  S
C4455      C4456   1.419       .  A
C4455      C4460   1.407       .  A
C4455      F4462   1.358       .  S
C4456      C4457   1.404       .  A
C4457      C4458   1.411       .  A
C4457      F4464   1.357       .  S
C4458      C4459   1.416       .  A
C4458      F4463   1.358       .  S
C4459      C4460   1.400       .  A
C4460      F4461   1.358       .  S
