geometry optimzed in LAMMPS
_audit_creation_date              2020-11-30 
_audit_creation_method            'lammps2cif' 
_symmetry_space_group_name_H-M    'P1' 
_symmetry_Int_Tables_number       1 
_symmetry_cell_setting            triclinic 
loop_ 
_symmetry_equiv_pos_as_xyz 
  x,y,z 
_cell_length_a                    37.70149204 
_cell_length_b                    36.70231003624355 
_cell_length_c                    48.07489703557497 
_cell_angle_alpha                 90.02066003636038 
_cell_angle_beta                  90.16171811626116 
_cell_angle_gamma                 89.98119769186594 
loop_ 
_atom_site_label 
_atom_site_type_symbol 
_atom_site_fract_x 
_atom_site_fract_y 
_atom_site_fract_z 
_atom_site_charge 
O1          O  0.64582316  0.29449408  0.12311721    -0.57100
C2          C  0.65884077  0.23628816  0.19512177     0.75600
O3          O  0.59927671  0.18400836  0.12566251    -0.58200
C4          C  0.64093878  0.28847224  0.09742038     0.75500
C5          C  0.71377887  0.20026986  0.11811362     0.77900
Cd6        Cd  0.64736568  0.22991297  0.13649466     1.37500
O7          O  0.65809101  0.26414096  0.17961243    -0.57100
O8          O  0.71061864  0.23208102  0.12773535    -0.55900
C9          C  0.57564221  0.20243187  0.13815054     0.77900
O10         O  0.68570036  0.18114626  0.11741437    -0.58200
O11         O  0.65614186  0.20576953  0.18297851    -0.56700
O12         O  0.63795697  0.25544988  0.09034753    -0.56700
O13         O  0.58545799  0.23232514  0.14860516    -0.55900
O14         O  0.66127282  0.83926321  0.88709230    -0.57100
C15         C  0.67410897  0.90731021  0.81857628     0.75600
O16         O  0.61719213  0.95037054  0.89123254    -0.58200
C17         C  0.65350300  0.84253063  0.91262433     0.75500
C18         C  0.73141396  0.92838604  0.90112603     0.77900
Cd19       Cd  0.66415446  0.90500407  0.87780767     1.37500
O20         O  0.67227309  0.87727638  0.83157643    -0.57100
O21         O  0.72812860  0.90052956  0.88582334    -0.55900
C22         C  0.59302493  0.93414108  0.87753661     0.77900
O23         O  0.70329722  0.94680790  0.90465528    -0.58200
O24         O  0.67420370  0.93576274  0.83347691    -0.56700
O25         O  0.64932721  0.87464756  0.92146846    -0.56700
O26         O  0.60239333  0.90618862  0.86408821    -0.55900
O27         O  0.88759811  0.17670282  0.98347459    -0.57100
C28         C  0.91217446  0.07758222  0.01430355     0.75600
O29         O  0.96282697  0.15608942  0.05728428    -0.58200
C30         C  0.88578080  0.20968506  0.99115420     0.75500
C31         C  0.84480257  0.15758548  0.06424557     0.77900
Cd32       Cd  0.90616969  0.15275216  0.02914422     1.37500
O33         O  0.90817230  0.10185105  0.99581811    -0.57100
O34         O  0.84595877  0.13866882  0.04235718    -0.55900
C35         C  0.98060514  0.16696457  0.03649437     0.77900
O36         O  0.87391100  0.17232091  0.07154340    -0.58200
O37         O  0.91245977  0.08800882  0.03937908    -0.56700
O38         O  0.89178748  0.21547436  0.01673092    -0.56700
O39         O  0.96346313  0.17370085  0.01454448    -0.55900
O40         O  0.90865908  0.93809180  0.03923764    -0.57100
C41         C  0.91664467  0.03914758  0.00721356     0.75600
O42         O  0.98369523  0.95954247  0.96760487    -0.58200
C43         C  0.91018599  0.90505668  0.03181261     0.75500
C44         C  0.86633349  0.95373937  0.95704466     0.77900
Cd45       Cd  0.92560599  0.96369250  0.99406061     1.37500
O46         O  0.91433889  0.01457822  0.02559474    -0.57100
O47         O  0.86402274  0.96833056  0.98078023    -0.55900
C48         C  0.00207260  0.96099654  0.98976328     0.77900
O49         O  0.89726321  0.94432320  0.94937786    -0.58200
O50         O  0.92336255  0.02897900  0.98261990    -0.56700
O51         O  0.91833380  0.89919816  0.00664778    -0.56700
O52         O  0.98517242  0.96211568  0.01235945    -0.55900
O53         O  0.65231445  0.26130915  0.32958956    -0.57100
C54         C  0.63472370  0.29124245  0.41061373     0.75600
O55         O  0.59408043  0.18610033  0.38847527    -0.58200
C56         C  0.65427392  0.23234713  0.31526011     0.75500
C57         C  0.70787916  0.19955615  0.39338403     0.77900
Cd58       Cd  0.64179640  0.22991500  0.37373504     1.37500
O59         O  0.64181618  0.29598638  0.38511701    -0.57100
O60         O  0.70582368  0.23005026  0.38128939    -0.55900
C61         C  0.57014110  0.20119483  0.37388650     0.77900
O62         O  0.67909699  0.18186005  0.39517105    -0.58200
O63         O  0.63118468  0.25860639  0.41837212    -0.56700
O64         O  0.65071152  0.20276431  0.32841773    -0.56700
O65         O  0.57975838  0.22818457  0.35942603    -0.55900
O66         O  0.66016832  0.87390977  0.68393884    -0.57100
C67         C  0.63548682  0.84394059  0.60216184     0.75600
O68         O  0.59727258  0.94717931  0.62320297    -0.58200
C69         C  0.66318879  0.90303771  0.69793761     0.75500
C70         C  0.71258405  0.93266600  0.61847557     0.77900
Cd71       Cd  0.64613293  0.90477887  0.63938651     1.37500
O72         O  0.63543343  0.83939889  0.62833153    -0.57100
O73         O  0.70914934  0.90127484  0.62888830    -0.55900
C74         C  0.57434616  0.93364845  0.63950365     0.77900
O75         O  0.68477444  0.95229807  0.61810856    -0.58200
O76         O  0.64080377  0.87610558  0.59396353    -0.56700
O77         O  0.65921287  0.93243492  0.68443997    -0.56700
O78         O  0.58514412  0.90872532  0.65551519    -0.55900
O79         O  0.88573650  0.94489107  0.47399313    -0.57100
C80         C  0.89841287  0.04498171  0.50610019     0.75600
O81         O  0.87088763  0.95456714  0.56436248    -0.58200
C82         C  0.88619649  0.91188520  0.48159801     0.75500
C83         C  0.97846847  0.96632494  0.52726846     0.77900
Cd84       Cd  0.90178647  0.97008183  0.52002258     1.37500
O85         O  0.89525998  0.02054074  0.48766953    -0.57100
O86         O  0.96277439  0.97067928  0.50430130    -0.55900
C87         C  0.84058176  0.96617425  0.55669587     0.77900
O88         O  0.95875651  0.96243979  0.54845129    -0.58200
O89         O  0.90237595  0.03471922  0.53104102    -0.56700
O90         O  0.89400395  0.90595468  0.50682943    -0.56700
O91         O  0.83925984  0.97952248  0.53251700    -0.55900
O92         O  0.89508028  0.10792772  0.51713509    -0.57100
C93         C  0.89308855  0.21734293  0.52320547     0.75600
O94         O  0.95923993  0.16257811  0.45654431    -0.58200
C95         C  0.89845581  0.08342431  0.49880890     0.75500
C96         C  0.84184018  0.16864966  0.44842619     0.77900
Cd97       Cd  0.90244927  0.15847258  0.48464901     1.37500
O98         O  0.88568882  0.18475751  0.52972517    -0.57100
O99         O  0.83964393  0.15698542  0.47311258    -0.55900
C100        C  0.97830971  0.16203506  0.47838014     0.77900
O101        O  0.87299378  0.17544401  0.43989620    -0.58200
O102        O  0.90323723  0.22249389  0.49844676    -0.56700
O103        O  0.90269530  0.09364184  0.47391915    -0.56700
O104        O  0.96220017  0.16048769  0.50130106    -0.55900
O105        O  0.34533255  0.27098296  0.18295512    -0.57100
C106        C  0.37231031  0.29755939  0.10468638     0.75600
O107        O  0.40196187  0.19292565  0.12238952    -0.58200
C108        C  0.33923436  0.24297256  0.19762859     0.75500
C109        C  0.28869482  0.21051481  0.11772831     0.77900
Cd110      Cd  0.35565034  0.23642642  0.13965251     1.37500
O111        O  0.36212772  0.30188403  0.12951589    -0.57100
O112        O  0.29450309  0.24325993  0.12444740    -0.55900
C113        C  0.42521666  0.20297815  0.13986794     0.77900
O114        O  0.31451767  0.18884592  0.12121078    -0.58200
O115        O  0.37452146  0.26486580  0.09653067    -0.56700
O116        O  0.34073297  0.21266857  0.18515950    -0.56700
O117        O  0.41505436  0.22591934  0.15778943    -0.55900
O118        O  0.35824097  0.87271463  0.83645947    -0.57100
C119        C  0.38607724  0.84143811  0.91606707     0.75600
O120        O  0.42056352  0.94656250  0.89436546    -0.58200
C121        C  0.35459942  0.90159954  0.82218851     0.75500
C122        C  0.30513333  0.93227631  0.90212744     0.77900
Cd123      Cd  0.37128104  0.90360043  0.88084240     1.37500
O124        O  0.37566745  0.83802440  0.89116452    -0.57100
O125        O  0.30735797  0.90178354  0.89008603    -0.55900
C126        C  0.44227350  0.93346217  0.87684444     0.77900
O127        O  0.33400536  0.94978923  0.90478781    -0.58200
O128        O  0.38946025  0.87384451  0.92464075    -0.56700
O129        O  0.35773843  0.93113417  0.83556282    -0.56700
O130        O  0.43048490  0.90836749  0.86143569    -0.55900
O131        O  0.10312459  0.11352831  0.99624698    -0.57100
C132        C  0.10941613  0.22405914  0.98977141     0.75600
O133        O  0.03915442  0.16257720  0.05680988    -0.58200
C134        C  0.10483951  0.08974406  0.01531146     0.75500
C135        C  0.15388039  0.17953873  0.06479901     0.77900
Cd136      Cd  0.09522065  0.16584874  0.02819299     1.37500
O137        O  0.11366316  0.19093402  0.98302030    -0.57100
O138        O  0.15675003  0.16355707  0.04165308    -0.55900
C139        C  0.01944911  0.16920068  0.03599316     0.77900
O140        O  0.12281068  0.18907847  0.07189827    -0.58200
O141        O  0.09870630  0.23008346  0.01426765    -0.56700
O142        O  0.10137782  0.10096111  0.04002037    -0.56700
O143        O  0.03486790  0.17581844  0.01328673    -0.55900
O144        O  0.14056026  0.94572099  0.04024417    -0.57100
C145        C  0.11012047  0.05095022  0.00915879     0.75600
O146        O  0.14531475  0.96195610  0.95126944    -0.58200
C147        C  0.13364943  0.91328777  0.03272239     0.75500
C148        C  0.04100677  0.96315418  0.99043443     0.77900
Cd149      Cd  0.11605945  0.97437912  0.99689550     1.37500
O150        O  0.11531374  0.02772102  0.02827270    -0.57100
O151        O  0.05648671  0.96752749  0.01353617    -0.55900
C152        C  0.17613049  0.97039597  0.95996130     0.77900
O153        O  0.06052831  0.96222860  0.96893001    -0.58200
O154        O  0.10924591  0.03905643  0.98447426    -0.56700
O155        O  0.11947661  0.91021601  0.00900450    -0.56700
O156        O  0.17803476  0.98072489  0.98497943    -0.55900
O157        O  0.36418858  0.30237202  0.38455420    -0.57100
C158        C  0.33483384  0.24516461  0.31718532     0.75600
O159        O  0.39777467  0.19088329  0.38891629    -0.58200
C160        C  0.36973822  0.29719733  0.41024283     0.75500
C161        C  0.28457812  0.21165367  0.39576803     0.77900
Cd162      Cd  0.35167564  0.23698038  0.37461838     1.37500
O163        O  0.33745406  0.27227758  0.33332151    -0.57100
O164        O  0.29002510  0.24404946  0.38820218    -0.55900
C165        C  0.42020634  0.20200673  0.37120040     0.77900
O166        O  0.31090142  0.19021892  0.39381034    -0.58200
O167        O  0.33771697  0.21398094  0.32828075    -0.56700
O168        O  0.36802688  0.26461837  0.41855097    -0.56700
O169        O  0.40994792  0.22723495  0.35531025    -0.55900
O170        O  0.34400222  0.86432695  0.68671530    -0.57100
C171        C  0.36624111  0.83356562  0.60593745     0.75600
O172        O  0.31180471  0.94160703  0.62032287    -0.58200
C173        C  0.34488586  0.89306183  0.70129134     0.75500
C174        C  0.42387590  0.92700892  0.63847465     0.77900
Cd175      Cd  0.35306623  0.89546459  0.64148941     1.37500
O176        O  0.36029337  0.82917108  0.63163108    -0.57100
O177        O  0.41574614  0.90037330  0.65380996    -0.55900
C178        C  0.28426483  0.92168810  0.62102029     0.77900
O179        O  0.39871152  0.94094291  0.62445672    -0.58200
O180        O  0.36584707  0.86613909  0.59738048    -0.56700
O181        O  0.34776712  0.92256744  0.68777557    -0.56700
O182        O  0.28869364  0.89065276  0.63182198    -0.55900
O183        O  0.11235816  0.18300176  0.53039522    -0.57100
C184        C  0.09791037  0.08327214  0.50021167     0.75600
O185        O  0.03648479  0.16244585  0.45690756    -0.58200
C186        C  0.11035638  0.21609669  0.52309404     0.75500
C187        C  0.15394733  0.16891557  0.45027486     0.77900
Cd188      Cd  0.09322341  0.15827312  0.48544041     1.37500
O189        O  0.09829120  0.10816113  0.51841959    -0.57100
O190        O  0.15534387  0.15520076  0.47429628    -0.55900
C191        C  0.01727735  0.16238307  0.47856957     0.77900
O192        O  0.12315863  0.17720418  0.44139523    -0.58200
O193        O  0.09636380  0.09305676  0.47498396    -0.56700
O194        O  0.09914141  0.22217306  0.49870282    -0.56700
O195        O  0.03327264  0.16186623  0.50164746    -0.55900
O196        O  0.11746322  0.94158645  0.48105158    -0.57100
C197        C  0.09813852  0.04489099  0.50811374     0.75600
O198        O  0.03617773  0.96356098  0.55004530    -0.58200
C199        C  0.10828070  0.90937469  0.48722439     0.75500
C200        C  0.15475206  0.96130012  0.56138926     0.77900
Cd201      Cd  0.09443695  0.96985532  0.52370688     1.37500
O202        O  0.10136111  0.01983682  0.49019086    -0.57100
O203        O  0.15722929  0.97253830  0.53666271    -0.55900
C204        C  0.01764287  0.96649343  0.52801287     0.77900
O205        O  0.12344600  0.95417125  0.56959153    -0.58200
O206        O  0.09422180  0.03527699  0.53320067    -0.56700
O207        O  0.09275195  0.90541835  0.51031519    -0.56700
O208        O  0.03452843  0.97025736  0.50554969    -0.55900
O209        O  0.16705282  0.36254460  0.68157416    -0.57100
C210        C  0.14430912  0.33188082  0.60091922     0.75600
O211        O  0.11122799  0.43692674  0.61775555    -0.58200
C212        C  0.16835889  0.39114098  0.69634042     0.75500
C213        C  0.22378312  0.42375198  0.61563586     0.77900
Cd214      Cd  0.15763712  0.39437348  0.63658279     1.37500
O215        O  0.15026978  0.32828338  0.62669957    -0.57100
O216        O  0.22075746  0.39157943  0.62476207    -0.55900
C217        C  0.08776502  0.42675284  0.63492372     0.77900
O218        O  0.19605244  0.44315395  0.61708668    -0.58200
O219        O  0.14504218  0.36418682  0.59182740    -0.56700
O220        O  0.16699983  0.42100962  0.68315416    -0.56700
O221        O  0.09713170  0.40314853  0.65255848    -0.55900
O222        O  0.16088826  0.75962946  0.33238166    -0.57100
C223        C  0.14332100  0.79060449  0.41294078     0.75600
O224        O  0.10748176  0.68714564  0.39565594    -0.58200
C225        C  0.16382063  0.73065148  0.31823741     0.75500
C226        C  0.22319895  0.70465573  0.39407533     0.77900
Cd227      Cd  0.15426280  0.72933460  0.37694897     1.37500
O228        O  0.15206359  0.79502209  0.38774637    -0.57100
O229        O  0.21775248  0.73619694  0.38460517    -0.55900
C230        C  0.08369848  0.69893152  0.37918383     0.77900
O231        O  0.19633817  0.68375875  0.39504417    -0.58200
O232        O  0.13999260  0.75808130  0.42122047    -0.56700
O233        O  0.16296812  0.70091432  0.33162605    -0.56700
O234        O  0.09315445  0.72304924  0.36199724    -0.55900
O235        O  0.40488389  0.52228541  0.49248774    -0.57100
C236        C  0.40225172  0.41518746  0.48562049     0.75600
O237        O  0.47382988  0.46645035  0.55184030    -0.58200
C238        C  0.41089672  0.54709253  0.51015561     0.75500
C239        C  0.35707150  0.46055379  0.56199000     0.77900
Cd240      Cd  0.41623720  0.47198835  0.52473580     1.37500
O241        O  0.39903739  0.44845234  0.47931196    -0.57100
O242        O  0.35418297  0.47533214  0.53835035    -0.55900
C243        C  0.49249347  0.46758398  0.52990960     0.77900
O244        O  0.38837126  0.45217174  0.56943992    -0.58200
O245        O  0.41160703  0.40805737  0.51035764    -0.56700
O246        O  0.41831598  0.53718931  0.53471585    -0.56700
O247        O  0.47589937  0.46961083  0.50713822    -0.55900
O248        O  0.41009701  0.61029979  0.52071951    -0.57100
C249        C  0.39687127  0.71962733  0.52535761     0.75600
O250        O  0.46898163  0.66868353  0.45969958    -0.58200
C251        C  0.41030310  0.58552231  0.50243532     0.75500
C252        C  0.35307467  0.66873105  0.45161806     0.77900
Cd253      Cd  0.41275872  0.66096314  0.48785697     1.37500
O254        O  0.39170392  0.68658828  0.53185520    -0.57100
O255        O  0.35079223  0.65792584  0.47645969    -0.55900
C256        C  0.48807016  0.66781862  0.48150250     0.77900
O257        O  0.38404484  0.67609837  0.44285011    -0.58200
O258        O  0.40888901  0.72508799  0.50118564    -0.56700
O259        O  0.41090352  0.59550412  0.47724597    -0.56700
O260        O  0.47212615  0.66527981  0.50444108    -0.55900
O261        O  0.16083008  0.33536017  0.88984573    -0.57100
C262        C  0.16909901  0.39764784  0.81741410     0.75600
O263        O  0.11283122  0.44415446  0.89128253    -0.58200
C264        C  0.14683881  0.33995401  0.91350542     0.75500
C265        C  0.22930918  0.42693227  0.89627475     0.77900
Cd266      Cd  0.16094685  0.40043954  0.87698575     1.37500
O267        O  0.16761719  0.36880902  0.83194201    -0.57100
O268        O  0.22444753  0.39678772  0.88429813    -0.55900
C269        C  0.09000405  0.42844571  0.87586493     0.77900
O270        O  0.20174860  0.44661745  0.89888133    -0.58200
O271        O  0.16777093  0.42736435  0.83075296    -0.56700
O272        O  0.14004768  0.37252031  0.92025313    -0.56700
O273        O  0.10079673  0.40174392  0.86166048    -0.55900
O274        O  0.17082522  0.75432437  0.18416673    -0.57100
C275        C  0.16159905  0.78950471  0.10610155     0.75600
O276        O  0.21253791  0.67626215  0.12253047    -0.58200
C277        C  0.17657321  0.72573164  0.19832102     0.75500
C278        C  0.10163317  0.69121699  0.13414768     0.77900
Cd279      Cd  0.17114375  0.72422933  0.13907893     1.37500
O280        O  0.16970611  0.79117857  0.13162515    -0.57100
O281        O  0.11130797  0.71026775  0.15467023    -0.55900
C282        C  0.23998916  0.69616858  0.12320407     0.77900
O283        O  0.12468026  0.68591006  0.11539986    -0.58200
O284        O  0.15822622  0.75767492  0.09630738    -0.56700
O285        O  0.18126069  0.69668584  0.18464550    -0.56700
O286        O  0.23516001  0.72842283  0.13159661    -0.55900
O287        O  0.41168522  0.68951488  0.98504142    -0.57100
C288        C  0.42335575  0.58638680  0.01457580     0.75600
O289        O  0.49040934  0.66620461  0.05381684    -0.58200
C290        C  0.41613242  0.72228601  0.99260577     0.75500
C291        C  0.37437393  0.66944419  0.07010369     0.77900
Cd292      Cd  0.43056912  0.66179362  0.02952231     1.37500
O293        O  0.41646279  0.61171699  0.99751938    -0.57100
O294        O  0.37020088  0.65610477  0.04606746    -0.55900
C295        C  0.50714280  0.66434866  0.03095061     0.77900
O296        O  0.40568228  0.67953358  0.07618675    -0.58200
O297        O  0.43280991  0.59575259  0.03883833    -0.56700
O298        O  0.42589192  0.72677870  0.01756707    -0.56700
O299        O  0.48861633  0.66238266  0.00912230    -0.55900
O300        O  0.39712547  0.44614065  0.03221813    -0.57100
C301        C  0.42139954  0.54805667  0.00628083     0.75600
O302        O  0.47484299  0.46850456  0.95839531    -0.58200
C303        C  0.40552226  0.41357765  0.02637303     0.75500
C304        C  0.36107783  0.46632782  0.95155512     0.77900
Cd305      Cd  0.42061698  0.47320806  0.98909576     1.37500
O306        O  0.42039499  0.52254487  0.02400085    -0.57100
O307        O  0.36003700  0.48507932  0.97353622    -0.55900
C308        C  0.49541148  0.46649059  0.97928827     0.77900
O309        O  0.39066670  0.45143809  0.94610184    -0.58200
O310        O  0.42132413  0.53897466  0.98088729    -0.56700
O311        O  0.42049395  0.40907330  0.00317068    -0.56700
O312        O  0.48111028  0.46678128  0.00297247    -0.55900
O313        O  0.86518134  0.36016216  0.83094020    -0.57100
C314        C  0.87264053  0.33328430  0.91560711     0.75600
O315        O  0.91523870  0.43819529  0.89095037    -0.58200
C316        C  0.86131242  0.38869691  0.81639425     0.75500
C317        C  0.80173064  0.42313088  0.89128993     0.77900
Cd318      Cd  0.86905016  0.39260248  0.87586936     1.37500
O319        O  0.86942993  0.32756799  0.88968476    -0.57100
O320        O  0.80529348  0.39102786  0.88212952    -0.55900
C321        C  0.94006986  0.42158092  0.87848259     0.77900
O322        O  0.82984348  0.44205990  0.89235872    -0.58200
O323        O  0.87453831  0.36637558  0.92267233    -0.56700
O324        O  0.85954355  0.41850549  0.82956838    -0.56700
O325        O  0.93157588  0.39278564  0.86569983    -0.55900
O326        O  0.87155352  0.74045466  0.18182266    -0.57100
C327        C  0.88809883  0.77942280  0.10254963     0.75600
O328        O  0.92757682  0.67349632  0.11784809    -0.58200
C329        C  0.86587738  0.71082352  0.19462940     0.75500
C330        C  0.81356888  0.68992122  0.11338682     0.77900
Cd331      Cd  0.88014749  0.71475035  0.13593437     1.37500
O332        O  0.88263043  0.78187135  0.12851276    -0.57100
O333        O  0.81783204  0.72089153  0.12430835    -0.55900
C334        C  0.95182149  0.68814094  0.13240387     0.77900
O335        O  0.84071873  0.66936841  0.11302850    -0.58200
O336        O  0.89080191  0.74756587  0.09286171    -0.56700
O337        O  0.86621711  0.68223903  0.17988465    -0.56700
O338        O  0.94236325  0.71302977  0.14895624    -0.55900
O339        O  0.61980917  0.51707244  0.01294661    -0.57100
C340        C  0.62477684  0.40838108  0.01990031     0.75600
O341        O  0.55162664  0.46445380  0.95502892    -0.58200
C342        C  0.61782623  0.54177345  0.99466042     0.75500
C343        C  0.66726530  0.45591212  0.94259369     0.77900
Cd344      Cd  0.61021508  0.46639971  0.98103126     1.37500
O345        O  0.63025539  0.44152345  0.02571544    -0.57100
O346        O  0.67066197  0.47093923  0.96610431    -0.55900
C347        C  0.53417921  0.46499667  0.97758562     0.77900
O348        O  0.63610177  0.44594231  0.93593726    -0.58200
O349        O  0.61390150  0.40176486  0.99544136    -0.56700
O350        O  0.61290044  0.53174713  0.96975814    -0.56700
O351        O  0.55185931  0.46500881  0.99987356    -0.55900
O352        O  0.63580055  0.68201868  0.97329652    -0.57100
C353        C  0.62017791  0.58016861  0.00227886     0.75600
O354        O  0.65362173  0.66712101  0.06209757    -0.58200
C355        C  0.63511986  0.71469192  0.98163177     0.75500
C356        C  0.54601983  0.66317456  0.02854431     0.77900
Cd357      Cd  0.62115283  0.65494763  0.01819487     1.37500
O358        O  0.62441460  0.60492269  0.98424826    -0.57100
O359        O  0.55976296  0.66036970  0.00473309    -0.55900
C360        C  0.68393974  0.65849119  0.05263266     0.77900
O361        O  0.56725364  0.66372429  0.04908608    -0.58200
O362        O  0.61735210  0.59005622  0.02738006    -0.56700
O363        O  0.62862831  0.71941658  0.00723022    -0.56700
O364        O  0.68450397  0.64789306  0.02765209    -0.55900
O365        O  0.86477129  0.36778469  0.68139416    -0.57100
C366        C  0.87412489  0.33535265  0.60224345     0.75600
O367        O  0.82693184  0.44845172  0.61633576    -0.58200
C368        C  0.85855023  0.39586375  0.69596486     0.75500
C369        C  0.93751665  0.42840070  0.63280878     0.77900
Cd370      Cd  0.86616392  0.39960901  0.63652387     1.37500
O371        O  0.86199954  0.33308194  0.62669140    -0.57100
O372        O  0.92707510  0.40733817  0.65186816    -0.55900
C373        C  0.79878518  0.42953206  0.61783761     0.77900
O374        O  0.91410439  0.43882496  0.61554789    -0.58200
O375        O  0.88229637  0.36703525  0.59419663    -0.56700
O376        O  0.85524163  0.42556316  0.68280616    -0.56700
O377        O  0.80249261  0.39832661  0.62837892    -0.55900
O378        O  0.86340396  0.79137910  0.38016275    -0.57100
C379        C  0.85452416  0.72147407  0.31483728     0.75600
O380        O  0.90934913  0.68664399  0.39730470    -0.58200
C381        C  0.86763342  0.79055136  0.40627560     0.75500
C382        C  0.79459341  0.69567089  0.39403624     0.77900
Cd383      Cd  0.86142827  0.72438553  0.37437627     1.37500
O384        O  0.85580645  0.75142537  0.32788686    -0.57100
O385        O  0.79673510  0.72564671  0.38119125    -0.55900
C386        C  0.93314827  0.69684411  0.38041990     0.77900
O387        O  0.82317670  0.67765353  0.39614083    -0.58200
O388        O  0.85500634  0.69297849  0.32975480    -0.56700
O389        O  0.86897604  0.75930249  0.41726352    -0.56700
O390        O  0.92312676  0.71769032  0.36105607    -0.55900
O391        O  0.62067315  0.68817965  0.53285236    -0.57100
C392        C  0.60672370  0.58746638  0.50163804     0.75600
O393        O  0.54599783  0.67321994  0.46023775    -0.58200
C394        C  0.61692344  0.72133836  0.52643712     0.75500
C395        C  0.66147167  0.66869467  0.45048911     0.77900
Cd396      Cd  0.60241996  0.66294696  0.48785143     1.37500
O397        O  0.60969169  0.61195816  0.52003716    -0.57100
O398        O  0.66384598  0.65737111  0.47526489    -0.55900
C399        C  0.52691302  0.66795421  0.48158081     0.77900
O400        O  0.63051448  0.67733278  0.44240551    -0.58200
O401        O  0.60195219  0.59782564  0.47680148    -0.56700
O402        O  0.60746117  0.72734411  0.50153348    -0.56700
O403        O  0.54289135  0.66164887  0.50414638    -0.55900
O404        O  0.62608667  0.44714587  0.47851214    -0.57100
C405        C  0.60812803  0.54888973  0.50886418     0.75600
O406        O  0.55085662  0.46729620  0.55131086    -0.58200
C407        C  0.62131863  0.41430343  0.48562298     0.75500
C408        C  0.66864679  0.46645947  0.55932606     0.77900
Cd409      Cd  0.60739809  0.47343916  0.52317698     1.37500
O410        O  0.61125261  0.52446383  0.49042880    -0.57100
O411        O  0.67008406  0.47857551  0.53478343    -0.55900
C412        C  0.53149662  0.46772864  0.52963225     0.77900
O413        O  0.63794678  0.45744923  0.56782802    -0.58200
O414        O  0.60574195  0.53846622  0.53386970    -0.56700
O415        O  0.61064622  0.40913000  0.51028683    -0.56700
O416        O  0.54733785  0.46936252  0.50658626    -0.55900
C417        C  0.72860818  0.69511043  0.39409073    -0.05000
C418        C  0.76050024  0.68370177  0.40667563     0.00900
C419        C  0.75904142  0.66448213  0.43222369    -0.07700
C420        C  0.72590065  0.65907325  0.44479662    -0.05100
C421        C  0.69407716  0.67212074  0.43307669     0.00900
C422        C  0.69522169  0.68915965  0.40654731    -0.07600
C423        C  0.66182390  0.70135860  0.39139662     0.62800
H424        H  0.73014113  0.70943341  0.37441476     0.13500
H425        H  0.72484505  0.64500505  0.46455936     0.13500
C426        C  0.79220933  0.65075880  0.44693383     0.63000
F427        F  0.66920964  0.71524396  0.36528153    -0.22100
F428        F  0.64492014  0.72835436  0.40645192    -0.19500
F429        F  0.63923758  0.67198357  0.38788426    -0.19100
F430        F  0.81554480  0.67927259  0.45137512    -0.19200
F431        F  0.80827179  0.62427285  0.43083980    -0.19500
F432        F  0.78469174  0.63547590  0.47257925    -0.22200
C433        C  0.76416819  0.47061806  0.58685424    -0.05000
C434        C  0.76392195  0.44219903  0.60642746     0.00900
C435        C  0.73095678  0.42521330  0.61292918    -0.07700
C436        C  0.70037897  0.43536980  0.59789023    -0.05100
C437        C  0.70131923  0.46149590  0.57661336     0.00900
C438        C  0.73359378  0.48057728  0.57169176    -0.07600
C439        C  0.73643631  0.51079494  0.55017756     0.62800
H440        H  0.78921077  0.48388460  0.58232304     0.13500
H441        H  0.67554309  0.42143683  0.60179565     0.13500
C442        C  0.72752904  0.39608408  0.63527063     0.63000
F443        F  0.76805864  0.52973817  0.55252560    -0.22100
F444        F  0.70911709  0.53556761  0.55362318    -0.19500
F445        F  0.73491369  0.49604204  0.52372407    -0.19100
F446        F  0.74285202  0.40812156  0.65979162    -0.19200
F447        F  0.74386864  0.36431535  0.62662704    -0.19500
F448        F  0.69242497  0.38784076  0.64085482    -0.22200
C449        C  0.86104049  0.68492906  0.27177972    -0.05000
C450        C  0.85399290  0.71914156  0.28384054     0.00900
C451        C  0.84773378  0.74945669  0.26609073    -0.07700
C452        C  0.85072293  0.74453784  0.23723206    -0.05100
C453        C  0.85951945  0.71084269  0.22522665     0.00900
C454        C  0.86369405  0.67995937  0.24279962    -0.07600
C455        C  0.87097167  0.64191806  0.23158663     0.62800
H456        H  0.86509560  0.66182725  0.28540469     0.13500
H457        H  0.84670266  0.76765574  0.22362312     0.13500
C458        C  0.83789690  0.78704162  0.27695270     0.63000
F459        F  0.87587487  0.61672429  0.25271724    -0.22100
F460        F  0.90137359  0.64192072  0.21557194    -0.19500
F461        F  0.84242127  0.63048443  0.21570899    -0.19100
F462        F  0.86613554  0.80181853  0.29148545    -0.19200
F463        F  0.80859033  0.78450268  0.29407610    -0.19500
F464        F  0.82943647  0.81094353  0.25563949    -0.22200
C465        C  0.71566677  0.68585424  0.09259927    -0.05000
C466        C  0.71696945  0.66234309  0.06958172     0.00900
C467        C  0.74966864  0.64488185  0.06303057    -0.07700
C468        C  0.78000186  0.65338389  0.07893491    -0.05100
C469        C  0.77915684  0.67907492  0.10054319     0.00900
C470        C  0.74609810  0.69484149  0.10813694    -0.07600
C471        C  0.74246009  0.72151593  0.13217494     0.62800
H472        H  0.69067098  0.69872653  0.09762616     0.13500
H473        H  0.80525314  0.64125833  0.07360168     0.13500
C474        C  0.75329780  0.61785300  0.03922456     0.63000
F475        F  0.70729087  0.72794500  0.13882625    -0.22100
F476        F  0.75760216  0.75452430  0.12505726    -0.19500
F477        F  0.75892467  0.70771140  0.15567054    -0.19100
F478        F  0.74976212  0.63580577  0.01408605    -0.19200
F479        F  0.72763775  0.59108417  0.04139061    -0.19500
F480        F  0.78606416  0.60075704  0.03932806    -0.22200
C481        C  0.83713156  0.41365261  0.77249867    -0.05000
C482        C  0.85923377  0.38799933  0.78557547     0.00900
C483        C  0.88087130  0.36500622  0.76906341    -0.07700
C484        C  0.87838630  0.36758890  0.73993093    -0.05100
C485        C  0.85695002  0.39381670  0.72681578     0.00900
C486        C  0.83590833  0.41745495  0.74336407    -0.07600
C487        C  0.81218257  0.44652997  0.73063158     0.62800
H488        H  0.82128465  0.43143670  0.78547115     0.13500
H489        H  0.89459144  0.35003159  0.72706415     0.13500
C490        C  0.90859587  0.34002754  0.78191004     0.63000
F491        F  0.79092533  0.46314097  0.75036380    -0.22100
F492        F  0.79019657  0.43110145  0.71078704    -0.19500
F493        F  0.83277841  0.47329292  0.71848152    -0.19100
F494        F  0.89232999  0.31248693  0.79675010    -0.19200
F495        F  0.93033413  0.35996750  0.79946583    -0.19500
F496        F  0.92989963  0.32398604  0.76193660    -0.22200
C497        C  0.73672359  0.41443309  0.89453351    -0.05000
C498        C  0.76639712  0.43629174  0.90094947     0.00900
C499        C  0.76161936  0.46745656  0.91805031    -0.07700
C500        C  0.72791745  0.47386558  0.92951685    -0.05100
C501        C  0.69906544  0.45031093  0.92488850     0.00900
C502        C  0.70314790  0.42057758  0.90638807    -0.07600
C503        C  0.67308620  0.39418469  0.90019273     0.62800
H504        H  0.74031935  0.39138251  0.88089082     0.13500
H505        H  0.72413638  0.49683943  0.94315613     0.13500
C506        C  0.79168847  0.49352378  0.92507322     0.63000
F507        F  0.68358345  0.36632570  0.88260994    -0.22100
F508        F  0.64541755  0.41250906  0.88744332    -0.19500
F509        F  0.66132800  0.37849710  0.92464831    -0.19100
F510        F  0.80492930  0.50854788  0.90085229    -0.19200
F511        F  0.81836247  0.47519726  0.93908840    -0.19500
F512        F  0.78062646  0.52191666  0.94193046    -0.22200
C513        C  0.00783563  0.67029584  0.15504054    -0.05000
C514        C  0.98970950  0.67822298  0.13028631     0.00900
C515        C  0.00907875  0.68234086  0.10525792    -0.07700
C516        C  0.04649051  0.68274862  0.10659146    -0.05100
C517        C  0.06449590  0.67825714  0.13197632     0.00900
C518        C  0.04499126  0.66841918  0.15596371    -0.07600
C519        C  0.06263945  0.65681440  0.18291753     0.62800
H520        H  0.99279248  0.66628273  0.17397293     0.13500
H521        H  0.06179424  0.68938162  0.08820639     0.13500
C522        C  0.99031373  0.68860895  0.07771793     0.63000
F523        F  0.04283650  0.62977969  0.19560607    -0.22100
F524        F  0.06507697  0.68630305  0.20071131    -0.19500
F525        F  0.09618947  0.64279510  0.17825948    -0.19100
F526        F  0.97015782  0.72006394  0.07902035    -0.19200
F527        F  0.96843728  0.65930826  0.07195878    -0.19500
F528        F  0.01405234  0.69213330  0.05596967    -0.22200
C529        C  0.30502514  0.70633341  0.12064381    -0.05000
C530        C  0.27587828  0.68386476  0.11394204     0.00900
C531        C  0.28163118  0.65286607  0.09686039    -0.07700
C532        C  0.31534131  0.64793601  0.08490278    -0.05100
C533        C  0.34328257  0.67277419  0.08907880     0.00900
C534        C  0.33868666  0.70152289  0.10844449    -0.07600
C535        C  0.36810356  0.72847678  0.11503562     0.62800
H536        H  0.30079787  0.72899750  0.13452406     0.13500
H537        H  0.31966043  0.62536846  0.07091510     0.13500
C538        C  0.25230245  0.62592023  0.08987545     0.63000
F539        F  0.35784050  0.75385235  0.13477674    -0.22100
F540        F  0.37743001  0.74710550  0.09115110    -0.19500
F541        F  0.39734668  0.71020776  0.12543889    -0.19100
F542        F  0.22562352  0.64338747  0.07524097    -0.19200
F543        F  0.23873190  0.61115330  0.11408480    -0.19500
F544        F  0.26438333  0.59736093  0.07363470    -0.22200
C545        C  0.99500594  0.43038383  0.85235034    -0.05000
C546        C  0.97739479  0.43414773  0.87781049     0.00900
C547        C  0.99692205  0.44453282  0.90178719    -0.07700
C548        C  0.03432512  0.44632951  0.89998526    -0.05100
C549        C  0.05199002  0.43852574  0.87495504     0.00900
C550        C  0.03187846  0.43360026  0.85029590    -0.07600
C551        C  0.04876511  0.42937555  0.82183423     0.62800
H552        H  0.97976257  0.42334396  0.83398365     0.13500
H553        H  0.05002958  0.45093150  0.91852115     0.13500
C554        C  0.97865602  0.45126691  0.92935943     0.63000
F555        F  0.02586426  0.44129835  0.80118642    -0.22100
F556        F  0.05660079  0.39310139  0.81703306    -0.19500
F557        F  0.07945666  0.44988824  0.81993038    -0.19100
F558        F  0.96078286  0.42021238  0.93760029    -0.19200
F559        F  0.95479208  0.47965682  0.92653444    -0.19500
F560        F  0.00256705  0.46050126  0.95010324    -0.22200
C561        C  0.26812345  0.47267573  0.91971459    -0.05000
C562        C  0.26495762  0.43806639  0.90731515     0.00900
C563        C  0.29537054  0.41482058  0.90689172    -0.07700
C564        C  0.32660298  0.42641397  0.92031739    -0.05100
C565        C  0.32880555  0.45979118  0.93433441     0.00900
C566        C  0.29953771  0.48415326  0.93311299    -0.07600
C567        C  0.30135506  0.52236565  0.94530489     0.62800
H568        H  0.24531096  0.49060429  0.91947663     0.13500
H569        H  0.34937886  0.40848286  0.92107286     0.13500
C570        C  0.29540295  0.37746245  0.89310695     0.63000
F571        F  0.27236923  0.54325190  0.93757965    -0.22100
F572        F  0.33154140  0.53984456  0.93588889    -0.19500
F573        F  0.30196238  0.52078144  0.97402811    -0.19100
F574        F  0.28760967  0.38103225  0.86510156    -0.19200
F575        F  0.27074892  0.35510318  0.90577296    -0.19500
F576        F  0.32801356  0.36028516  0.89520008    -0.22200
C577        C  0.98907418  0.67988500  0.35757616    -0.05000
C578        C  0.97115874  0.68656413  0.38263081     0.00900
C579        C  0.99101300  0.69001768  0.40762608    -0.07700
C580        C  0.02845352  0.68969740  0.40612496    -0.05100
C581        C  0.04609088  0.68732403  0.38048899     0.00900
C582        C  0.02626373  0.68015884  0.35603731    -0.07600
C583        C  0.04389981  0.67535764  0.32792442     0.62800
H584        H  0.97365283  0.67702895  0.33865978     0.13500
H585        H  0.04412422  0.69468923  0.42460181     0.13500
C586        C  0.97302043  0.69720228  0.43529970     0.63000
F587        F  0.02168509  0.65762496  0.30935446    -0.22100
F588        F  0.07447130  0.65475846  0.33054760    -0.19500
F589        F  0.05232032  0.70909733  0.31700226    -0.19100
F590        F  0.95092973  0.66840318  0.44183113    -0.19200
F591        F  0.95329552  0.72893331  0.43372497    -0.19500
F592        F  0.99734773  0.70112138  0.45672532    -0.22200
C593        C  0.18690427  0.70210966  0.27540467    -0.05000
C594        C  0.16815161  0.73102409  0.28763857     0.00900
C595        C  0.15295318  0.75828285  0.27044894    -0.07700
C596        C  0.15752363  0.75567088  0.24157656    -0.05100
C597        C  0.17578040  0.72652845  0.22919664     0.00900
C598        C  0.19109272  0.69919592  0.24641795    -0.07600
C599        C  0.21205470  0.66728799  0.23470658     0.62800
H600        H  0.19819416  0.68144862  0.28889522     0.13500
H601        H  0.14587246  0.77626027  0.22826930     0.13500
C602        C  0.13060000  0.78918710  0.28211817     0.63000
F603        F  0.22825215  0.64703015  0.25546718    -0.22100
F604        F  0.23839658  0.67996132  0.21723022    -0.19500
F605        F  0.18966066  0.64424366  0.22017710    -0.19100
F606        F  0.15173728  0.81253665  0.29748744    -0.19200
F607        F  0.10404159  0.77518189  0.29879450    -0.19500
F608        F  0.11450658  0.80942344  0.26131332    -0.22200
C609        C  0.32141244  0.70185219  0.41436181    -0.05000
C610        C  0.32089483  0.67404823  0.43434289     0.00900
C611        C  0.28930815  0.65367096  0.43836197    -0.07700
C612        C  0.25872695  0.66377885  0.42361304    -0.05100
C613        C  0.25837492  0.69338524  0.40518325     0.00900
C614        C  0.29071271  0.71208890  0.39958134    -0.07600
C615        C  0.29343845  0.74283194  0.37848034     0.62800
H616        H  0.34584328  0.71681714  0.41135972     0.13500
H617        H  0.23416721  0.64946315  0.42755882     0.13500
C618        C  0.28709549  0.62169727  0.45837904     0.63000
F619        F  0.32837610  0.75239183  0.37337620    -0.22100
F620        F  0.27615863  0.77345692  0.38831417    -0.19500
F621        F  0.27857264  0.73210630  0.35345187    -0.19100
F622        F  0.28650366  0.63435824  0.48547050    -0.19200
F623        F  0.31584300  0.59877793  0.45473500    -0.19500
F624        F  0.25667896  0.60127528  0.45407861    -0.22200
C625        C  0.99338906  0.44394564  0.65657979    -0.05000
C626        C  0.97558190  0.43855595  0.63121020     0.00900
C627        C  0.99557638  0.43654403  0.60624249    -0.07700
C628        C  0.03295555  0.43760815  0.60797675    -0.05100
C629        C  0.05048836  0.43926762  0.63372426     0.00900
C630        C  0.03053312  0.44510500  0.65820995    -0.07600
C631        C  0.04764142  0.45034196  0.68653882     0.62800
H632        H  0.97807624  0.44559458  0.67555652     0.13500
H633        H  0.04875096  0.43368703  0.58950339     0.13500
C634        C  0.97801502  0.42999331  0.57822538     0.63000
F635        F  0.02742059  0.47370655  0.70262786    -0.22100
F636        F  0.08113063  0.46544806  0.68424937    -0.19500
F637        F  0.05010857  0.41711629  0.69996040    -0.19100
F638        F  0.95722533  0.45966946  0.57126473    -0.19200
F639        F  0.95713018  0.39906088  0.57935331    -0.19500
F640        F  0.00270021  0.42495457  0.55728736    -0.22200
C641        C  0.18552073  0.42091550  0.74079334    -0.05000
C642        C  0.17058693  0.39046541  0.72738453     0.00900
C643        C  0.15580947  0.36215335  0.74388703    -0.07700
C644        C  0.15658988  0.36559555  0.77308329    -0.05100
C645        C  0.17097197  0.39629573  0.78643568     0.00900
C646        C  0.18595342  0.42450574  0.76999912    -0.07600
C647        C  0.20242411  0.45832313  0.78295644     0.62800
H648        H  0.19651007  0.44243116  0.72804906     0.13500
H649        H  0.14517366  0.34434698  0.78584640     0.13500
C650        C  0.13836119  0.32877059  0.73107793     0.63000
F651        F  0.21940353  0.47975255  0.76340612    -0.22100
F652        F  0.22729578  0.44837060  0.80277468    -0.19500
F653        F  0.17626964  0.47930203  0.79518378    -0.19100
F654        F  0.16374124  0.30783391  0.71786495    -0.19200
F655        F  0.11260963  0.33926585  0.71214863    -0.19500
F656        F  0.12206402  0.30716518  0.75089360    -0.22200
C657        C  0.28872680  0.41631796  0.61003429    -0.05000
C658        C  0.25815059  0.43684662  0.60380192     0.00900
C659        C  0.26120715  0.46701282  0.58542559    -0.07700
C660        C  0.29459807  0.47474773  0.57367801    -0.05100
C661        C  0.32478640  0.45322693  0.57901661     0.00900
C662        C  0.32190894  0.42362407  0.59783176    -0.07600
C663        C  0.35313408  0.39892404  0.60455743     0.62800
H664        H  0.28631699  0.39380529  0.62429984     0.13500
H665        H  0.29715915  0.49728603  0.55939137     0.13500
C666        C  0.22942219  0.49002153  0.57689346     0.63000
F667        F  0.34337890  0.36988026  0.62124155    -0.22100
F668        F  0.37885038  0.41861978  0.61856002    -0.19500
F669        F  0.36719697  0.38468058  0.58032776    -0.19100
F670        F  0.21487837  0.50671149  0.59999270    -0.19200
F671        F  0.20425404  0.46815200  0.56418848    -0.19500
F672        F  0.23854785  0.51721608  0.55828066    -0.22200
C673        C  0.14651057  0.88119312  0.45151276    -0.05000
C674        C  0.11641341  0.87820214  0.46857135     0.00900
C675        C  0.09557917  0.84595610  0.46737325    -0.07700
C676        C  0.10554309  0.81827395  0.44875317    -0.05100
C677        C  0.13548890  0.82144443  0.43170738     0.00900
C678        C  0.15701600  0.85294115  0.43355549    -0.07600
C679        C  0.19199821  0.85586809  0.41811978     0.62800
H680        H  0.16243601  0.90567373  0.45289003     0.13500
H681        H  0.08983969  0.79363079  0.44729307     0.13500
C682        C  0.06276682  0.84051111  0.48519218     0.63000
F683        F  0.21084130  0.88664180  0.42588326    -0.22100
F684        F  0.18599747  0.85771903  0.38979331    -0.19500
F685        F  0.21279434  0.82575647  0.42401875    -0.19100
F686        F  0.03994210  0.86973809  0.48202206    -0.19200
F687        F  0.07258735  0.83727257  0.51281581    -0.19500
F688        F  0.04436565  0.80925731  0.47789744    -0.22200
C689        C  0.11268467  0.24093364  0.57073491    -0.05000
C690        C  0.12019518  0.24585082  0.54243950     0.00900
C691        C  0.13741423  0.27815743  0.53361119    -0.07700
C692        C  0.14543586  0.30497835  0.55360689    -0.05100
C693        C  0.13698302  0.30062091  0.58192837     0.00900
C694        C  0.12053560  0.26775464  0.59074231    -0.07600
C695        C  0.11012678  0.26111572  0.62081688     0.62800
H696        H  0.09980644  0.21584729  0.57701738     0.13500
H697        H  0.15834563  0.32994743  0.54712700     0.13500
C698        C  0.14799489  0.28410061  0.50341830     0.63000
F699        F  0.09235564  0.22839229  0.62413849    -0.22100
F700        F  0.08792872  0.28869782  0.62981574    -0.19500
F701        F  0.14016191  0.25992139  0.63735282    -0.19100
F702        F  0.11799701  0.28769851  0.48703507    -0.19200
F703        F  0.16792317  0.25487054  0.49410568    -0.19500
F704        F  0.16812399  0.31531821  0.50008535    -0.22200
C705        C  0.39291582  0.81204892  0.56218076    -0.05000
C706        C  0.37397029  0.80316168  0.58636144     0.00900
C707        C  0.36245518  0.76670878  0.59028313    -0.07700
C708        C  0.36989486  0.74087462  0.56944254    -0.05100
C709        C  0.38913441  0.74971139  0.54530755     0.00900
C710        C  0.40113140  0.78615368  0.54165905    -0.07600
C711        C  0.42311739  0.79811822  0.51677507     0.62800
H712        H  0.40183751  0.83995300  0.55958153     0.13500
H713        H  0.36099144  0.71300493  0.57216242     0.13500
C714        C  0.34287267  0.75462372  0.61627436     0.63000
F715        F  0.43305811  0.83437802  0.51851763    -0.22100
F716        F  0.40366544  0.79398113  0.49254756    -0.19500
F717        F  0.45381945  0.77755060  0.51536949    -0.19100
F718        F  0.31366319  0.77662739  0.62077500    -0.19200
F719        F  0.36554030  0.75659865  0.63889416    -0.19500
F720        F  0.33086789  0.71905722  0.61419234    -0.22200
C721        C  0.24983313  0.96321202  0.59014276    -0.05000
C722        C  0.24941884  0.93362923  0.60870894     0.00900
C723        C  0.21636543  0.91603169  0.61398132    -0.07700
C724        C  0.18585643  0.92732588  0.59912336    -0.05100
C725        C  0.18703036  0.95506841  0.57904097     0.00900
C726        C  0.21939065  0.97440210  0.57528894    -0.07600
C727        C  0.22220647  0.00704649  0.55595861     0.62800
H728        H  0.27477380  0.97693110  0.58647560     0.13500
H729        H  0.16099723  0.91322839  0.60216565     0.13500
C730        C  0.21282457  0.88507237  0.63477451     0.63000
F731        F  0.25370724  0.02581624  0.55980421    -0.22100
F732        F  0.19469078  0.03106780  0.56105684    -0.19500
F733        F  0.22093278  0.99567082  0.52855796    -0.19100
F734        F  0.22694146  0.89540532  0.66017171    -0.19200
F735        F  0.23036898  0.85458739  0.62497746    -0.19500
F736        F  0.17774168  0.87549822  0.63910838    -0.22200
C737        C  0.37361418  0.35687419  0.47484501    -0.05000
C738        C  0.39441005  0.38593869  0.46550967     0.00900
C739        C  0.40689531  0.38636449  0.43774235    -0.07700
C740        C  0.39838777  0.35678608  0.42023637    -0.05100
C741        C  0.37758854  0.32749661  0.42967257     0.00900
C742        C  0.36420642  0.32793629  0.45724640    -0.07600
C743        C  0.33872259  0.29903464  0.46786881     0.62800
H744        H  0.36414262  0.35743898  0.49604660     0.13500
H745        H  0.40802678  0.35623974  0.39909111     0.13500
C746        C  0.42964358  0.41744803  0.42689305     0.63000
F747        F  0.32477641  0.30812247  0.49355637    -0.22100
F748        F  0.35613962  0.26609887  0.47072567    -0.19500
F749        F  0.31068144  0.29522520  0.44944693    -0.19100
F750        F  0.45846860  0.42279055  0.44432315    -0.19200
F751        F  0.40976829  0.44908533  0.42569113    -0.19500
F752        F  0.44237566  0.41047557  0.40045223    -0.22200
C753        C  0.24981372  0.16894424  0.42454777    -0.05000
C754        C  0.24980051  0.19966720  0.40720762     0.00900
C755        C  0.21725559  0.21828629  0.40216441    -0.07700
C756        C  0.18627903  0.20581072  0.41544931    -0.05100
C757        C  0.18685630  0.17654643  0.43424026     0.00900
C758        C  0.21919102  0.15730901  0.43859791    -0.07600
C759        C  0.22213657  0.12502941  0.45832080     0.62800
H760        H  0.27467265  0.15499154  0.42816352     0.13500
H761        H  0.16154198  0.22016034  0.41234143     0.13500
C762        C  0.21478699  0.25142587  0.38323729     0.63000
F763        F  0.25438594  0.10726792  0.45582208    -0.22100
F764        F  0.19568501  0.09998124  0.45262192    -0.19500
F765        F  0.21928278  0.13692282  0.48552438    -0.19100
F766        F  0.22907432  0.24336725  0.35747904    -0.19200
F767        F  0.23287281  0.28037626  0.39503249    -0.19500
F768        F  0.18004553  0.26244404  0.37908300    -0.22200
C769        C  0.13927855  0.81625133  0.06227834    -0.05000
C770        C  0.15554357  0.82225881  0.08818954     0.00900
C771        C  0.16550050  0.85837894  0.09553035    -0.07700
C772        C  0.15792229  0.88698302  0.07675548    -0.05100
C773        C  0.14131944  0.88093222  0.05085250     0.00900
C774        C  0.13222850  0.84451216  0.04332898    -0.07600
C775        C  0.11515504  0.83465506  0.01556546     0.62800
H776        H  0.13178396  0.78869666  0.05686317     0.13500
H777        H  0.16503455  0.91461247  0.08230408     0.13500
C778        C  0.18460423  0.86699150  0.12264752     0.63000
F779        F  0.10962208  0.79752460  0.01280706    -0.22100
F780        F  0.13701358  0.84529014  0.99397569    -0.19500
F781        F  0.08247391  0.85152829  0.01316998    -0.19100
F782        F  0.21559233  0.84688270  0.12433207    -0.19200
F783        F  0.16299078  0.85879116  0.14498322    -0.19500
F784        F  0.19363560  0.90345727  0.12466183    -0.22200
C785        C  0.10723944  0.31299484  0.94880290    -0.05000
C786        C  0.13774013  0.30927910  0.93229740     0.00900
C787        C  0.15861028  0.27725839  0.93463423    -0.07700
C788        C  0.14804551  0.25009192  0.95352438    -0.05100
C789        C  0.11777919  0.25399801  0.97019413     0.00900
C790        C  0.09661133  0.28579068  0.96762922    -0.07600
C791        C  0.06238522  0.29067994  0.98387699     0.62800
H792        H  0.09148797  0.33754853  0.94667711     0.13500
H793        H  0.16377805  0.22555937  0.95574722     0.13500
C794        C  0.19247250  0.27210979  0.91806144     0.63000
F795        F  0.04349676  0.32093045  0.97503428    -0.22100
F796        F  0.06990978  0.29520480  0.01182218    -0.19500
F797        F  0.04089461  0.26046514  0.98036247    -0.19100
F798        F  0.21475572  0.30156069  0.92223515    -0.19200
F799        F  0.18445713  0.26901598  0.89008278    -0.19500
F800        F  0.21061786  0.24096270  0.92593491    -0.22200
C801        C  0.41700790  0.81587840  0.95726866    -0.05000
C802        C  0.39434544  0.80978012  0.93444939     0.00900
C803        C  0.37995512  0.77439578  0.93038015    -0.07700
C804        C  0.38795084  0.74693819  0.94988499    -0.05100
C805        C  0.40981016  0.75329353  0.97312624     0.00900
C806        C  0.42539788  0.78829619  0.97656262    -0.07600
C807        C  0.45118785  0.79677319  0.00008458     0.62800
H808        H  0.42828117  0.84283002  0.95994979     0.13500
H809        H  0.37666713  0.72001244  0.94722488     0.13500
C810        C  0.35561099  0.76549848  0.90604806     0.63000
F811        F  0.46654931  0.83081749  0.99716245    -0.22100
F812        F  0.47829770  0.77133731  0.00045226    -0.19500
F813        F  0.43347676  0.79626627  0.02523100    -0.19100
F814        F  0.37389491  0.76922316  0.88130323    -0.19200
F815        F  0.32665437  0.78866988  0.90619774    -0.19500
F816        F  0.34297396  0.73013438  0.90724058    -0.22200
C817        C  0.34970842  0.86589718  0.77842184    -0.05000
C818        C  0.34838405  0.90026395  0.79140995     0.00900
C819        C  0.34267153  0.93165317  0.77456112    -0.07700
C820        C  0.34043879  0.92728892  0.74552754    -0.05100
C821        C  0.34362048  0.89319533  0.73243011     0.00900
C822        C  0.34747176  0.86159115  0.74931865    -0.07600
C823        C  0.34991435  0.82343884  0.73711340     0.62800
H824        H  0.35346558  0.84202894  0.79135365     0.13500
H825        H  0.33685691  0.95116700  0.73257354     0.13500
C826        C  0.33910741  0.96986422  0.78655364     0.63000
F827        F  0.35357839  0.79701740  0.75748583    -0.22100
F828        F  0.37908044  0.82094859  0.71982972    -0.19500
F829        F  0.31934218  0.81570129  0.72227828    -0.19100
F830        F  0.37058365  0.98021573  0.79909245    -0.19200
F831        F  0.31185414  0.97068322  0.80574832    -0.19500
F832        F  0.33139691  0.99549455  0.76626688    -0.22200
C833        C  0.27243383  0.97088324  0.93564565    -0.05000
C834        C  0.27092867  0.94608513  0.91347638     0.00900
C835        C  0.23714826  0.93481430  0.90340981    -0.07700
C836        C  0.20661802  0.94463189  0.91852237    -0.05100
C837        C  0.20855137  0.96654726  0.94244884     0.00900
C838        C  0.24177933  0.98226954  0.94982080    -0.07600
C839        C  0.24548357  0.01111481  0.97233379     0.62800
H840        H  0.29811927  0.98050990  0.94253967     0.13500
H841        H  0.18111209  0.93389416  0.91224864     0.13500
C842        C  0.23272413  0.91217863  0.87715951     0.63000
F843        F  0.27787785  0.02876720  0.97082265    -0.22100
F844        F  0.24295693  0.99520839  0.99831908    -0.19500
F845        F  0.21930157  0.03725856  0.96923495    -0.19100
F846        F  0.24054610  0.87613069  0.88283206    -0.19200
F847        F  0.25484102  0.92487393  0.85638105    -0.19500
F848        F  0.19830932  0.91400486  0.86708196    -0.22200
C849        C  0.38818083  0.39215064  0.07321838    -0.05000
C850        C  0.39823591  0.38296030  0.04595591     0.00900
C851        C  0.40093182  0.34551036  0.03858594    -0.07700
C852        C  0.39154369  0.31913667  0.05842523    -0.05100
C853        C  0.38119643  0.32830583  0.08563852     0.00900
C854        C  0.38022954  0.36566930  0.09342348    -0.07600
C855        C  0.37140805  0.37811690  0.12278040     0.62800
H856        H  0.38697900  0.42067725  0.07880784     0.13500
H857        H  0.39277307  0.29065140  0.05274561     0.13500
C858        C  0.41426104  0.33273836  0.01034823     0.63000
F859        F  0.37329033  0.41561771  0.12558757    -0.22100
F860        F  0.39530691  0.36307005  0.14141234    -0.19500
F861        F  0.33728192  0.36763795  0.12956324    -0.19100
F862        F  0.44895548  0.34403675  0.00677955    -0.19200
F863        F  0.39313103  0.34670550  0.98934451    -0.19500
F864        F  0.41381512  0.29513751  0.00786065    -0.22200
C865        C  0.34597941  0.27596404  0.24224080    -0.05000
C866        C  0.33246202  0.24551610  0.22799168     0.00900
C867        C  0.31487239  0.21773886  0.24323734    -0.07700
C868        C  0.31412341  0.22019665  0.27238138    -0.05100
C869        C  0.33036103  0.24903604  0.28671326     0.00900
C870        C  0.34563132  0.27816389  0.27145161    -0.07600
C871        C  0.36346743  0.31032365  0.28574934     0.62800
H872        H  0.35874968  0.29727403  0.23032575     0.13500
H873        H  0.30219449  0.19838297  0.28439478     0.13500
C874        C  0.29805891  0.18479893  0.22927744     0.63000
F875        F  0.37777018  0.33466336  0.26688637    -0.22100
F876        F  0.39076582  0.29803177  0.30262853    -0.19500
F877        F  0.33891289  0.32908700  0.30158501    -0.19100
F878        F  0.32436228  0.16146913  0.22009873    -0.19200
F879        F  0.27722235  0.19568088  0.20703584    -0.19500
F880        F  0.27655803  0.16557972  0.24738227    -0.22200
C881        C  0.22564083  0.22520618  0.10833281    -0.05000
C882        C  0.25334550  0.19947137  0.10638241     0.00900
C883        C  0.24672099  0.16589518  0.09254737    -0.07700
C884        C  0.21288915  0.15989533  0.08095441    -0.05100
C885        C  0.18597827  0.18634467  0.08187522     0.00900
C886        C  0.19230666  0.21963858  0.09582172    -0.07600
C887        C  0.16510934  0.25021432  0.09588590     0.62800
H888        H  0.23061619  0.25058195  0.11902624     0.13500
H889        H  0.20743733  0.13470027  0.07012359     0.13500
C890        C  0.27513277  0.13692763  0.08877804     0.63000
F891        F  0.17786473  0.28131687  0.10878854    -0.22100
F892        F  0.13498834  0.23927561  0.10992033    -0.19500
F893        F  0.15630799  0.25926592  0.06879066    -0.19100
F894        F  0.28600377  0.12406204  0.11445328    -0.19200
F895        F  0.30374836  0.15152288  0.07470549    -0.19500
F896        F  0.26296029  0.10744799  0.07349529    -0.22200
C897        C  0.90459448  0.30707370  0.56237684    -0.05000
C898        C  0.87932378  0.30337057  0.58362444     0.00900
C899        C  0.85942477  0.27058622  0.58542740    -0.07700
C900        C  0.86519873  0.24323360  0.56538069    -0.05100
C901        C  0.88962107  0.24756073  0.54360089     0.00900
C902        C  0.91035179  0.27981793  0.54237048    -0.07600
C903        C  0.93894159  0.28564960  0.52053762     0.62800
H904        H  0.91991183  0.33199755  0.56139824     0.13500
H905        H  0.84998411  0.21820118  0.56628144     0.13500
C906        C  0.83140919  0.26460415  0.60761554     0.63000
F907        F  0.95901583  0.31647087  0.52590922    -0.22100
F908        F  0.92347376  0.28992728  0.49462910    -0.19500
F909        F  0.96181083  0.25616042  0.52012049    -0.19100
F910        F  0.80667012  0.29241130  0.60661014    -0.19200
F911        F  0.84719830  0.26372784  0.63360388    -0.19500
F912        F  0.81348913  0.23201151  0.60392276    -0.22200
C913        C  0.89268497  0.88421521  0.43482031    -0.05000
C914        C  0.87867906  0.88183862  0.46183605     0.00900
C915        C  0.85832019  0.85099680  0.46937834    -0.07700
C916        C  0.85463186  0.82242230  0.45014466    -0.05100
C917        C  0.87020396  0.82381818  0.42366521     0.00900
C918        C  0.88902551  0.85550252  0.41550296    -0.07600
C919        C  0.90687648  0.85832976  0.38727046     0.62800
H920        H  0.90764440  0.90816643  0.42935213     0.13500
H921        H  0.83997177  0.79830681  0.45589629     0.13500
C922        C  0.84038662  0.84804576  0.49754122     0.63000
F923        F  0.92520563  0.89076003  0.38427523    -0.22100
F924        F  0.88174702  0.85672754  0.36630325    -0.19500
F925        F  0.93077299  0.83001110  0.38412504    -0.19100
F926        F  0.82233048  0.87993642  0.50350143    -0.19200
F927        F  0.86563708  0.84169409  0.51787199    -0.19500
F928        F  0.81610952  0.81976600  0.49823408    -0.22200
C929        C  0.63691641  0.77771312  0.59201426    -0.05000
C930        C  0.63029190  0.81316384  0.58233210     0.00900
C931        C  0.61878210  0.81808879  0.55438381    -0.07700
C932        C  0.61568604  0.78734654  0.53708989    -0.05100
C933        C  0.62245483  0.75180384  0.54665586     0.00900
C934        C  0.63287807  0.74679285  0.57491284    -0.07600
C935        C  0.63938074  0.70932134  0.58744037     0.62800
H936        H  0.64545432  0.77436146  0.61343638     0.13500
H937        H  0.60747898  0.79102329  0.51572455     0.13500
C938        C  0.60861398  0.85523244  0.54271800     0.63000
F939        F  0.64910804  0.71122524  0.61519507    -0.22100
F940        F  0.66647646  0.69194115  0.57332996    -0.19500
F941        F  0.60866924  0.68878911  0.58586407    -0.19100
F942        F  0.63835554  0.87710700  0.54075058    -0.19200
F943        F  0.58378553  0.87158634  0.55981239    -0.19500
F944        F  0.59382076  0.85269281  0.51638865    -0.22200
C945        C  0.51816663  0.94503911  0.61368367    -0.05000
C946        C  0.53626316  0.94409947  0.63928133     0.00900
C947        C  0.51646939  0.94595684  0.66425269    -0.07700
C948        C  0.47937278  0.94279349  0.66291103    -0.05100
C949        C  0.46129869  0.93978245  0.63746102     0.00900
C950        C  0.48071935  0.94286690  0.61232112    -0.07600
C951        C  0.46227548  0.94091747  0.58428500     0.62800
H952        H  0.53364019  0.94422633  0.59474919     0.13500
H953        H  0.46434079  0.94092728  0.68206267     0.13500
C954        C  0.53400641  0.94855253  0.69262580     0.63000
F955        F  0.48599004  0.94412266  0.56248498    -0.22100
F956        F  0.43794524  0.96897389  0.58208135    -0.19500
F957        F  0.44490730  0.90789414  0.58163386    -0.19100
F958        F  0.56559351  0.96766156  0.69120298    -0.19200
F959        F  0.54051267  0.91391305  0.70271375    -0.19500
F960        F  0.51219907  0.96668894  0.71117594    -0.22200
C961        C  0.74554344  0.97164885  0.58522193    -0.05000
C962        C  0.74679942  0.94487171  0.60602635     0.00900
C963        C  0.78014850  0.92929186  0.61314028    -0.07700
C964        C  0.81006039  0.93815111  0.59703522    -0.05100
C965        C  0.80826766  0.96255353  0.57456952     0.00900
C966        C  0.77565784  0.98121179  0.56948587    -0.07600
C967        C  0.77197348  0.01113787  0.54778957     0.62800
H968        H  0.72021153  0.98409483  0.58050881     0.13500
H969        H  0.83503960  0.92471630  0.60136189     0.13500
C970        C  0.78470517  0.90319532  0.63743173     0.63000
F971        F  0.73958404  0.02883879  0.54961878    -0.22100
F972        F  0.77446225  0.99649387  0.52137686    -0.19500
F973        F  0.79824370  0.03696493  0.55165021    -0.19100
F974        F  0.77113356  0.86939379  0.63048346    -0.19200
F975        F  0.76741540  0.91654798  0.66065414    -0.19500
F976        F  0.82008575  0.89872984  0.64448358    -0.22200
C977        C  0.65179609  0.35346196  0.42559201    -0.05000
C978        C  0.63127195  0.32216569  0.43034314     0.00900
C979        C  0.60795676  0.32128210  0.45347458    -0.07700
C980        C  0.60632595  0.35176166  0.47107494    -0.05100
C981        C  0.62643650  0.38327996  0.46616976     0.00900
C982        C  0.65002251  0.38411373  0.44318548    -0.07600
C983        C  0.67362926  0.41672334  0.43725656     0.62800
H984        H  0.66945294  0.35371265  0.40781482     0.13500
H985        H  0.58848825  0.35145975  0.48864733     0.13500
C986        C  0.58328832  0.28933385  0.45883838     0.63000
F987        F  0.69882854  0.40894876  0.41721638    -0.22100
F988        F  0.69148630  0.42707384  0.46117179    -0.19500
F989        F  0.65317204  0.44542583  0.42772334    -0.19100
F990        F  0.60270067  0.25882305  0.46618788    -0.19200
F991        F  0.56369588  0.28232791  0.43507254    -0.19500
F992        F  0.55968822  0.29631979  0.48019257    -0.22200
C993        C  0.51497360  0.18990070  0.34765189    -0.05000
C994        C  0.53244792  0.18940636  0.37346495     0.00900
C995        C  0.51241143  0.18357535  0.39797785    -0.07700
C996        C  0.47503766  0.18371796  0.39606603    -0.05100
C997        C  0.45762039  0.18940569  0.37054930     0.00900
C998        C  0.47777209  0.18935087  0.34565854    -0.07600
C999        C  0.46040298  0.18907440  0.31706010     0.62800
H1000       H  0.53071312  0.19289755  0.32900850     0.13500
H1001       H  0.45925798  0.18262539  0.41482264     0.13500
C1002       C  0.53017064  0.17990796  0.42617286     0.63000
F1003       F  0.48462589  0.18081558  0.29639155    -0.22100
F1004       F  0.44604808  0.22280006  0.31100978    -0.19500
F1005       F  0.43395388  0.16295999  0.31627416    -0.19100
F1006       F  0.54889762  0.21124810  0.43222487    -0.19200
F1007       F  0.55317162  0.15056839  0.42590096    -0.19500
F1008       F  0.50579553  0.17429207  0.44722615    -0.22200
C1009       C  0.77353099  0.20317123  0.39532811    -0.05000
C1010       C  0.74228436  0.18683087  0.40535157     0.00900
C1011       C  0.74475934  0.16171575  0.42769494    -0.07700
C1012       C  0.77798956  0.15626037  0.44048137    -0.05100
C1013       C  0.80902193  0.17392872  0.43133637     0.00900
C1014       C  0.80698082  0.19690571  0.40762191    -0.07600
C1015       C  0.83947919  0.21530686  0.39535809     0.62800
H1016       H  0.77146795  0.22145671  0.37779870     0.13500
H1017       H  0.77987056  0.13812924  0.45807460     0.13500
C1018       C  0.71272860  0.14091615  0.43844290     0.63000
F1019       F  0.83093924  0.23760414  0.37309519    -0.22100
F1020       F  0.86286897  0.18905626  0.38590525    -0.19500
F1021       F  0.85589434  0.23671807  0.41526345    -0.19100
F1022       F  0.69880905  0.11968394  0.41728342    -0.19200
F1023       F  0.68722088  0.16500072  0.44789257    -0.19500
F1024       F  0.72140416  0.11792713  0.46024849    -0.22200
C1025       C  0.90788020  0.84317703  0.09560780    -0.05000
C1026       C  0.89161991  0.81199748  0.08448639     0.00900
C1027       C  0.87907517  0.81264473  0.05659746    -0.07700
C1028       C  0.88554434  0.84375212  0.04032644    -0.05100
C1029       C  0.90274928  0.87454243  0.05117629     0.00900
C1030       C  0.91344443  0.87472978  0.07952782    -0.07600
C1031       C  0.93146219  0.90755722  0.09264125     0.62800
H1032       H  0.91675237  0.84240678  0.11711439     0.13500
H1033       H  0.87700179  0.84430086  0.01873795     0.13500
C1034       C  0.85785287  0.78132335  0.04421458     0.63000
F1035       F  0.94226571  0.90067732  0.11967768    -0.22100
F1036       F  0.90809333  0.93659363  0.09333086    -0.19500
F1037       F  0.96113727  0.91701488  0.07739615    -0.19100
F1038       F  0.83053774  0.77189290  0.06199330    -0.19200
F1039       F  0.87963011  0.75152585  0.04001540    -0.19500
F1040       F  0.84288808  0.79054599  0.01884273    -0.22200
C1041       C  0.88460883  0.27603651  0.98183544    -0.05000
C1042       C  0.87897351  0.24060193  0.97159483     0.00900
C1043       C  0.86877747  0.23621401  0.94329817    -0.07700
C1044       C  0.86678942  0.26731421  0.92618229    -0.05100
C1045       C  0.87396467  0.30262658  0.93613535     0.00900
C1046       C  0.88222750  0.30718559  0.96487257    -0.07600
C1047       C  0.88908629  0.34431065  0.97796902     0.62800
H1048       H  0.89181275  0.27926523  0.00356452     0.13500
H1049       H  0.85980576  0.26405077  0.90440490     0.13500
C1050       C  0.85981073  0.19922060  0.93091644     0.63000
F1051       F  0.89685512  0.34181386  0.00608473    -0.22100
F1052       F  0.85925118  0.36598729  0.97530151    -0.19500
F1053       F  0.91768213  0.36083238  0.96517907    -0.19100
F1054       F  0.83411603  0.18234547  0.94686407    -0.19200
F1055       F  0.88992787  0.17774620  0.92994857    -0.19500
F1056       F  0.84668908  0.20207331  0.90407449    -0.22200
C1057       C  0.63883499  0.77747796  0.91842312    -0.05000
C1058       C  0.64950500  0.81027828  0.93088786     0.00900
C1059       C  0.65746739  0.81088726  0.95979378    -0.07700
C1060       C  0.65284964  0.77878429  0.97522946    -0.05100
C1061       C  0.64141005  0.74614159  0.96289606     0.00900
C1062       C  0.63501948  0.74512302  0.93375380    -0.07600
C1063       C  0.62413384  0.71043857  0.91867565     0.62800
H1064       H  0.63336553  0.77742031  0.89621545     0.13500
H1065       H  0.65811801  0.77903465  0.99744099     0.13500
C1066       C  0.67112822  0.84480383  0.97453176     0.63000
F1067       F  0.61748371  0.71648029  0.89071669    -0.22100
F1068       F  0.59352726  0.69639791  0.93030506    -0.19500
F1069       F  0.65117649  0.68506282  0.92052967    -0.19100
F1070       F  0.64422773  0.87030041  0.97635284    -0.19200
F1071       F  0.69948285  0.85942074  0.96013375    -0.19500
F1072       F  0.68275016  0.83723361  0.00127763    -0.22200
C1073       C  0.53708262  0.94267274  0.85177458    -0.05000
C1074       C  0.55521210  0.94540914  0.87722566     0.00900
C1075       C  0.53569480  0.95204409  0.90186673    -0.07700
C1076       C  0.49825595  0.95171019  0.90049991    -0.05100
C1077       C  0.48021501  0.94444686  0.87546560     0.00900
C1078       C  0.49984795  0.94262630  0.85034441    -0.07600
C1079       C  0.48199180  0.93935915  0.82207599     0.62800
H1080       H  0.55236362  0.93830953  0.83299846     0.13500
H1081       H  0.48289685  0.95409407  0.91941209     0.13500
C1082       C  0.55419675  0.95655177  0.92971937     0.63000
F1083       F  0.50478481  0.94933602  0.80085637    -0.22100
F1084       F  0.45272327  0.96206202  0.82075293    -0.19500
F1085       F  0.47150283  0.90375810  0.81751063    -0.19100
F1086       F  0.57621331  0.98666283  0.92886461    -0.19200
F1087       F  0.57411290  0.92582120  0.93559388    -0.19500
F1088       F  0.53029397  0.96153847  0.95118888    -0.22200
C1089       C  0.68582456  0.87709524  0.77332015    -0.05000
C1090       C  0.67477654  0.90857520  0.78756544     0.00900
C1091       C  0.66183336  0.93871454  0.77196381    -0.07700
C1092       C  0.65969426  0.93560774  0.74284817    -0.05100
C1093       C  0.66932153  0.90361606  0.72864932     0.00900
C1094       C  0.68329351  0.87388688  0.74414558    -0.07600
C1095       C  0.69518894  0.83868002  0.73039568     0.62800
H1096       H  0.69571128  0.85439655  0.78540894     0.13500
H1097       H  0.64919461  0.95813022  0.73090170     0.13500
C1098       C  0.64878256  0.97362489  0.78564753     0.63000
F1099       F  0.71199396  0.81558127  0.74901480    -0.22100
F1100       F  0.71886045  0.84617742  0.70922260    -0.19500
F1101       F  0.66603554  0.82049888  0.71975470    -0.19100
F1102       F  0.67642820  0.99030056  0.79968552    -0.19200
F1103       F  0.62163486  0.96573196  0.80399450    -0.19500
F1104       F  0.63577674  0.99839441  0.76643430    -0.22200
C1105       C  0.79450803  0.91250484  0.91055059    -0.05000
C1106       C  0.76640740  0.93745879  0.91433932     0.00900
C1107       C  0.77253789  0.96890306  0.93101012    -0.07700
C1108       C  0.80611231  0.97350678  0.94345343    -0.05100
C1109       C  0.83374408  0.94820730  0.94004335     0.00900
C1110       C  0.82797001  0.91710113  0.92321707    -0.07600
C1111       C  0.85632957  0.88806779  0.91953750     0.62800
H1112       H  0.78993370  0.88856727  0.89782543     0.13500
H1113       H  0.81098902  0.99704957  0.95654671     0.13500
C1114       C  0.74420897  0.99763773  0.93602329     0.63000
F1115       F  0.84400148  0.85843056  0.90454421    -0.22100
F1116       F  0.86743778  0.87552018  0.94527138    -0.19500
F1117       F  0.88490074  0.90256726  0.90537035    -0.19100
F1118       F  0.71603863  0.98250414  0.95032201    -0.19200
F1119       F  0.73257178  0.01149271  0.91085129    -0.19500
F1120       F  0.75684708  0.02656404  0.95167345    -0.22200
C1121       C  0.62602336  0.35246617  0.08678849    -0.05000
C1122       C  0.63821908  0.31869594  0.07701516     0.00900
C1123       C  0.64792169  0.31508311  0.04860110    -0.07700
C1124       C  0.64309950  0.34512193  0.03075066    -0.05100
C1125       C  0.63042854  0.37875555  0.04049303     0.00900
C1126       C  0.62220014  0.38275017  0.06913628    -0.07600
C1127       C  0.60877733  0.41845995  0.08116080     0.62800
H1128       H  0.61923908  0.35492741  0.10854773     0.13500
H1129       H  0.64954111  0.34266934  0.00891891     0.13500
C1130       C  0.66445212  0.28036675  0.03715847     0.63000
F1131       F  0.59872856  0.41495597  0.10871152    -0.22100
F1132       F  0.57955103  0.43040730  0.06627698    -0.19500
F1133       F  0.63536487  0.44434846  0.07995501    -0.19100
F1134       F  0.63972746  0.25255433  0.03700232    -0.19200
F1135       F  0.69326570  0.27038771  0.05336778    -0.19500
F1136       F  0.67636545  0.28485967  0.01016516    -0.22200
C1137       C  0.51945216  0.18308022  0.11543853    -0.05000
C1138       C  0.53797684  0.19122179  0.14003157     0.00900
C1139       C  0.51904255  0.19430306  0.16533871    -0.07700
C1140       C  0.48185125  0.19366700  0.16456415    -0.05100
C1141       C  0.46298855  0.19092329  0.13942041     0.00900
C1142       C  0.48195267  0.18315527  0.11456361    -0.07600
C1143       C  0.46309495  0.17747944  0.08697152     0.62800
H1144       H  0.53451158  0.17999642  0.09641854     0.13500
H1145       H  0.46715869  0.19843079  0.18361955     0.13500
C1146       C  0.53766947  0.20122879  0.19290775     0.63000
F1147       F  0.48656532  0.16913372  0.06580480    -0.22100
F1148       F  0.44508167  0.20885992  0.07953714    -0.19500
F1149       F  0.43939967  0.14887942  0.08925929    -0.19100
F1150       F  0.54811879  0.23727513  0.19439095    -0.19200
F1151       F  0.56710005  0.17893494  0.19547318    -0.19500
F1152       F  0.51555754  0.19424684  0.21523151    -0.22200
C1153       C  0.67269796  0.20656889  0.23976213    -0.05000
C1154       C  0.66170941  0.23832072  0.22589922     0.00900
C1155       C  0.65076440  0.26899689  0.24174367    -0.07700
C1156       C  0.65021566  0.26600290  0.27089301    -0.05100
C1157       C  0.65914056  0.23346283  0.28463728     0.00900
C1158       C  0.67120820  0.20321169  0.26881629    -0.07600
C1159       C  0.68198463  0.16718167  0.28203395     0.62800
H1160       H  0.68136986  0.18357107  0.22743323     0.13500
H1161       H  0.64133627  0.28892814  0.28322868     0.13500
C1162       C  0.63827580  0.30427693  0.22832055     0.63000
F1163       F  0.69664068  0.14340305  0.26287405    -0.22100
F1164       F  0.65250797  0.15032696  0.29326958    -0.19500
F1165       F  0.70705213  0.17313573  0.30260939    -0.19100
F1166       F  0.60988474  0.29736190  0.21080615    -0.19200
F1167       F  0.66574114  0.31970054  0.21339396    -0.19500
F1168       F  0.62723887  0.32961459  0.24782168    -0.22200
C1169       C  0.74658954  0.16237608  0.08456608    -0.05000
C1170       C  0.74803629  0.18684835  0.10689517     0.00900
C1171       C  0.78156889  0.19892737  0.11676172    -0.07700
C1172       C  0.81237680  0.18686222  0.10310131    -0.05100
C1173       C  0.81096104  0.16403872  0.07961655     0.00900
C1174       C  0.77723181  0.15108562  0.07031937    -0.07600
C1175       C  0.77266684  0.12673807  0.04490676     0.62800
H1176       H  0.72076528  0.15350422  0.07741718     0.13500
H1177       H  0.83794710  0.19650393  0.11015710     0.13500
C1178       C  0.78525137  0.22415822  0.14170677     0.63000
F1179       F  0.73759962  0.11703771  0.04051128    -0.22100
F1180       F  0.79186319  0.09492221  0.04835082    -0.19500
F1181       F  0.78401641  0.14494005  0.02136139    -0.19100
F1182       F  0.76608505  0.21042569  0.16384073    -0.19200
F1183       F  0.77296225  0.25858079  0.13503839    -0.19500
F1184       F  0.82020518  0.22762809  0.15022252    -0.22200
loop_ 
_geom_bond_atom_site_label_1 
_geom_bond_atom_site_label_2 
_geom_bond_distance 
_geom_bond_site_symmetry_2 
_ccdc_geom_bond_type 
O1            C4   1.268       .  A
O1           Cd6   2.457       .  S
C2           O11   1.267       .  A
C2            O7   1.266       .  A
C2         C1154   1.485       .  S
O3            C9   1.270       .  A
O3           Cd6   2.528       .  S
C4           O12   1.264       .  A
C4         C1122   1.484       .  S
C5           O10   1.271       .  A
C5            O8   1.261       .  A
C5         C1170   1.485       .  S
Cd6          O13   2.409       .  S
Cd6          O12   2.434       .  S
Cd6          O11   2.426       .  S
Cd6           O7   2.456       .  S
Cd6          O10   2.478       .  S
Cd6           O8   2.424       .  S
C9           O13   1.262       .  A
C9         C1138   1.482       .  S
O14          C17   1.268       .  A
O14         Cd19   2.456       .  S
C15          O24   1.266       .  A
C15          O20   1.269       .  A
C15        C1090   1.492       .  S
O16          C22   1.271       .  A
O16         Cd19   2.515       .  S
C17          O25   1.263       .  A
C17        C1058   1.482       .  S
C18          O23   1.269       .  A
C18          O21   1.265       .  A
C18        C1106   1.500       .  S
Cd19         O26   2.419       .  S
Cd19         O25   2.443       .  S
Cd19         O24   2.443       .  S
Cd19         O20   2.464       .  S
Cd19         O23   2.487       .  S
Cd19         O21   2.447       .  S
C22          O26   1.263       .  A
C22        C1074   1.484       .  S
O27          C30   1.267       .  A
O27         Cd32   2.465   1_556  S
C28          O37   1.265       .  A
C28          O33   1.267   1_554  A
C28          C41   1.461       .  S
O29          C35   1.270       .  A
O29         Cd32   2.528       .  S
C30          O38   1.268   1_556  A
C30        C1042   1.496       .  S
C31          O36   1.272       .  A
C31          O34   1.261       .  A
C31        C1173   1.495       .  S
Cd32         O39   2.400       .  S
Cd32         O38   2.439       .  S
Cd32         O37   2.438       .  S
Cd32         O33   2.462   1_554  S
Cd32         O36   2.482       .  S
Cd32         O34   2.415       .  S
C35          O39   1.260       .  A
C35         C139   1.467   1_655  S
O40          C43   1.265       .  A
O40         Cd45   2.453   1_554  S
C41          O50   1.266   1_554  A
C41          O46   1.266       .  A
O42          C48   1.270   1_655  A
O42         Cd45   2.540       .  S
C43          O51   1.267       .  A
C43        C1029   1.484       .  S
C44          O49   1.272       .  A
C44          O47   1.264       .  A
C44        C1109   1.488       .  S
Cd45         O52   2.410   1_556  S
Cd45         O51   2.459   1_556  S
Cd45         O50   2.460   1_565  S
Cd45         O46   2.443   1_566  S
Cd45         O49   2.500       .  S
Cd45         O47   2.412       .  S
C48          O52   1.262   1_456  A
C48         C148   1.470       .  S
O53          C56   1.269       .  A
O53         Cd58   2.449       .  S
C54          O63   1.262       .  A
C54          O59   1.267       .  A
C54         C978   1.485       .  S
O55          C61   1.269       .  A
O55         Cd58   2.517       .  S
C56          O64   1.264       .  A
C56        C1157   1.485       .  S
C57          O62   1.268       .  A
C57          O60   1.264       .  A
C57        C1010   1.492       .  S
Cd58         O65   2.437       .  S
Cd58         O64   2.420       .  S
Cd58         O63   2.424       .  S
Cd58         O59   2.486       .  S
Cd58         O62   2.478       .  S
Cd58         O60   2.440       .  S
C61          O65   1.264       .  A
C61         C994   1.486       .  S
O66          C69   1.268       .  A
O66         Cd71   2.479       .  S
C67          O76   1.261       .  A
C67          O72   1.269       .  A
C67         C930   1.490       .  S
O68          C74   1.270       .  A
O68         Cd71   2.532       .  S
C69          O77   1.268       .  A
C69        C1093   1.494       .  S
C70          O75   1.272       .  A
C70          O73   1.263       .  A
C70         C962   1.493       .  S
Cd71         O78   2.433       .  S
Cd71         O77   2.441       .  S
Cd71         O76   2.432       .  S
Cd71         O72   2.490       .  S
Cd71         O75   2.494       .  S
Cd71         O73   2.434       .  S
C74          O78   1.262       .  A
C74         C946   1.486       .  S
O79          C82   1.266       .  A
O79         Cd84   2.472       .  S
C80          O89   1.265       .  A
C80          O85   1.266       .  A
C80          C95   1.454       .  S
O81          C87   1.273       .  A
O81         Cd84   2.498       .  S
C82          O90   1.266       .  A
C82         C914   1.482       .  S
C83          O88   1.270       .  A
C83          O86   1.261       .  A
C83         C204   1.477   1_655  S
Cd84         O91   2.459       .  S
Cd84         O90   2.455       .  S
Cd84         O89   2.431   1_565  S
Cd84         O85   2.431   1_565  S
Cd84         O88   2.558       .  S
Cd84         O86   2.423       .  S
C87          O91   1.262       .  A
C87         C965   1.499       .  S
O92          C95   1.265       .  A
O92         Cd97   2.442       .  S
C93         O102   1.266       .  A
C93          O98   1.268       .  A
C93         C901   1.486       .  S
O94         C100   1.271       .  A
O94         Cd97   2.540       .  S
C95         O103   1.265       .  A
C96         O101   1.270       .  A
C96          O99   1.265       .  A
C96        C1013   1.496       .  S
Cd97        O104   2.390       .  S
Cd97        O103   2.435       .  S
Cd97        O102   2.442       .  S
Cd97         O98   2.456       .  S
Cd97        O101   2.497       .  S
Cd97         O99   2.431       .  S
C100        O104   1.261       .  A
C100        C191   1.469   1_655  S
O105        C108   1.268       .  A
O105       Cd110   2.469       .  S
C106        O115   1.265       .  A
C106        O111   1.265       .  A
C106        C853   1.492       .  S
O107        C113   1.268       .  A
O107       Cd110   2.508       .  S
C108        O116   1.265       .  A
C108        C866   1.485       .  S
C109        O114   1.268       .  A
C109        O112   1.263       .  A
C109        C882   1.495       .  S
Cd110       O117   2.432       .  S
Cd110       O116   2.423       .  S
Cd110       O115   2.430       .  S
Cd110       O111   2.464       .  S
Cd110       O114   2.497       .  S
Cd110       O112   2.429       .  S
C113        O117   1.265       .  A
C113       C1141   1.491       .  S
O118        C121   1.270       .  A
O118       Cd123   2.464       .  S
C119        O128   1.265       .  A
C119        O124   1.265       .  A
C119        C802   1.492       .  S
O120        C126   1.270       .  A
O120       Cd123   2.521       .  S
C121        O129   1.266       .  A
C121        C818   1.498       .  S
C122        O127   1.270       .  A
C122        O125   1.263       .  A
C122        C834   1.490       .  S
Cd123       O130   2.428       .  S
Cd123       O129   2.453       .  S
Cd123       O128   2.468       .  S
Cd123       O124   2.463       .  S
Cd123       O127   2.486       .  S
Cd123       O125   2.453       .  S
C126        O130   1.262       .  A
C126       C1077   1.488       .  S
O131        C134   1.267   1_556  A
O131       Cd136   2.477   1_556  S
C132        O141   1.265   1_556  A
C132        O137   1.268       .  A
C132        C789   1.482       .  S
O133        C139   1.268       .  A
O133       Cd136   2.528       .  S
C134        O142   1.264       .  A
C134        C145   1.468       .  S
C135        O140   1.270       .  A
C135        O138   1.263       .  A
C135        C885   1.482       .  S
Cd136       O143   2.411       .  S
Cd136       O142   2.459       .  S
Cd136       O141   2.455       .  S
Cd136       O137   2.461   1_554  S
Cd136       O140   2.492       .  S
Cd136       O138   2.408       .  S
C139        O143   1.262       .  A
O144        C147   1.271       .  A
O144       Cd149   2.509   1_554  S
C145        O154   1.265   1_554  A
C145        O150   1.268       .  A
O146        C152   1.272       .  A
O146       Cd149   2.500       .  S
C147        O155   1.263       .  A
C147        C773   1.501       .  S
C148        O153   1.271       .  A
C148        O151   1.263   1_556  A
Cd149       O156   2.419       .  S
Cd149       O155   2.429   1_556  S
Cd149       O154   2.461   1_565  S
Cd149       O150   2.471   1_566  S
Cd149       O153   2.525       .  S
Cd149       O151   2.400   1_556  S
C152        O156   1.263       .  A
C152        C837   1.493       .  S
O157        C160   1.266       .  A
O157       Cd162   2.492       .  S
C158        O167   1.267       .  A
C158        O163   1.265       .  A
C158        C869   1.481       .  S
O159        C165   1.270       .  A
O159       Cd162   2.519       .  S
C160        O168   1.263       .  A
C160        C741   1.481       .  S
C161        O166   1.270       .  A
C161        O164   1.261       .  A
C161        C754   1.490       .  S
Cd162       O169   2.414       .  S
Cd162       O168   2.421       .  S
Cd162       O167   2.438       .  S
Cd162       O163   2.430       .  S
Cd162       O166   2.484       .  S
Cd162       O164   2.430       .  S
C165        O169   1.261       .  A
C165        C997   1.485       .  S
O170        C173   1.266       .  A
O170       Cd175   2.481       .  S
C171        O180   1.265       .  A
C171        O176   1.266       .  A
C171        C706   1.489       .  S
O172        C178   1.271       .  A
O172       Cd175   2.513       .  S
C173        O181   1.268       .  A
C173        C821   1.498       .  S
C174        O179   1.270       .  A
C174        O177   1.263       .  A
C174        C949   1.488       .  S
Cd175       O182   2.476       .  S
Cd175       O181   2.446       .  S
Cd175       O180   2.427       .  S
Cd175       O176   2.494       .  S
Cd175       O179   2.536       .  S
Cd175       O177   2.441       .  S
C178        O182   1.263       .  A
C178        C722   1.505       .  S
O183        C186   1.267       .  A
O183       Cd188   2.451       .  S
C184        O193   1.266       .  A
C184        O189   1.265       .  A
C184        C197   1.459       .  S
O185        C191   1.270       .  A
O185       Cd188   2.542       .  S
C186        O194   1.265       .  A
C186        C690   1.481       .  S
C187        O192   1.272       .  A
C187        O190   1.261       .  A
C187        C757   1.489       .  S
Cd188       O195   2.396       .  S
Cd188       O194   2.440       .  S
Cd188       O193   2.449       .  S
Cd188       O189   2.436       .  S
Cd188       O192   2.501       .  S
Cd188       O190   2.407       .  S
C191        O195   1.261       .  A
O196        C199   1.268       .  A
O196       Cd201   2.458       .  S
C197        O206   1.266       .  A
C197        O202   1.266       .  A
O198        C204   1.272       .  A
O198       Cd201   2.549       .  S
C199        O207   1.265       .  A
C199        C674   1.486       .  S
C200        O205   1.273       .  A
C200        O203   1.262       .  A
C200        C725   1.499       .  S
Cd201       O208   2.419       .  S
Cd201       O207   2.452       .  S
Cd201       O206   2.444   1_565  S
Cd201       O202   2.456   1_565  S
Cd201       O205   2.526       .  S
Cd201       O203   2.448       .  S
C204        O208   1.263       .  A
O209        C212   1.268       .  A
O209       Cd214   2.483       .  S
C210        O219   1.264       .  A
C210        O215   1.266       .  A
C210        C693   1.491       .  S
O211        C217   1.268       .  A
O211       Cd214   2.512       .  S
C212        O220   1.267       .  A
C212        C642   1.495       .  S
C213        O218   1.267       .  A
C213        O216   1.265       .  A
C213        C658   1.496       .  S
Cd214       O221   2.430       .  S
Cd214       O220   2.467       .  S
Cd214       O219   2.465       .  S
Cd214       O215   2.487       .  S
Cd214       O218   2.488       .  S
Cd214       O216   2.450       .  S
C217        O221   1.262       .  A
C217        C629   1.479       .  S
O222        C225   1.267       .  A
O222       Cd227   2.428       .  S
C223        O232   1.265       .  A
C223        O228   1.267       .  A
C223        C677   1.477       .  S
O224        C230   1.271       .  A
O224       Cd227   2.516       .  S
C225        O233   1.268       .  A
C225        C594   1.481       .  S
C226        O231   1.272       .  A
C226        O229   1.261       .  A
C226        C613   1.487       .  S
Cd227       O234   2.423       .  S
Cd227       O233   2.438       .  S
Cd227       O232   2.437       .  S
Cd227       O228   2.467       .  S
Cd227       O231   2.462       .  S
Cd227       O229   2.434       .  S
C230        O234   1.263       .  A
C230        C581   1.482       .  S
O235        C238   1.265       .  A
O235       Cd240   2.448       .  S
C236        O245   1.267       .  A
C236        O241   1.264       .  A
C236        C738   1.474       .  S
O237        C243   1.270       .  A
O237       Cd240   2.537       .  S
C238        O246   1.266       .  A
C238        C251   1.459       .  S
C239        O244   1.270       .  A
C239        O242   1.264       .  A
C239        C661   1.493       .  S
Cd240       O247   2.407       .  S
Cd240       O246   2.442       .  S
Cd240       O245   2.452       .  S
Cd240       O241   2.434       .  S
Cd240       O244   2.503       .  S
Cd240       O242   2.434       .  S
C243        O247   1.262       .  A
C243        C412   1.471       .  S
O248        C251   1.265       .  A
O248       Cd253   2.443       .  S
C249        O258   1.265       .  A
C249        O254   1.268       .  A
C249        C709   1.492       .  S
O250        C256   1.270       .  A
O250       Cd253   2.534       .  S
C251        O259   1.266       .  A
C252        O257   1.272       .  A
C252        O255   1.262       .  A
C252        C610   1.481       .  S
Cd253       O260   2.379       .  S
Cd253       O259   2.457       .  S
Cd253       O258   2.443       .  S
Cd253       O254   2.449       .  S
Cd253       O257   2.480       .  S
Cd253       O255   2.401       .  S
C256        O260   1.261       .  A
C256        C399   1.464       .  S
O261        C264   1.266       .  A
O261       Cd266   2.468       .  S
C262        O271   1.266       .  A
C262        O267   1.270       .  A
C262        C645   1.492       .  S
O263        C269   1.272       .  A
O263       Cd266   2.518       .  S
C264        O272   1.265       .  A
C264        C786   1.485       .  S
C265        O270   1.272       .  A
C265        O268   1.260       .  A
C265        C562   1.500       .  S
Cd266       O273   2.383       .  S
Cd266       O272   2.451       .  S
Cd266       O271   2.447       .  S
Cd266       O267   2.470       .  S
Cd266       O270   2.518       .  S
Cd266       O268   2.422       .  S
C269        O273   1.262       .  A
C269        C549   1.481       .  S
O274        C277   1.269       .  A
O274       Cd279   2.432       .  S
C275        O284   1.266       .  A
C275        O280   1.265       .  A
C275        C770   1.496       .  S
O276        C282   1.267       .  A
O276       Cd279   2.484       .  S
C277        O285   1.265       .  A
C277        C597   1.485       .  S
C278        O283   1.269       .  A
C278        O281   1.262       .  A
C278        C517   1.482       .  S
Cd279       O286   2.446       .  S
Cd279       O285   2.442       .  S
Cd279       O284   2.443       .  S
Cd279       O280   2.484       .  S
Cd279       O283   2.516       .  S
Cd279       O281   2.434       .  S
C282        O286   1.264       .  A
C282        C530   1.495       .  S
O287        C290   1.267       .  A
O287       Cd292   2.471   1_556  S
C288        O297   1.266       .  A
C288        O293   1.266   1_554  A
C288        C301   1.464       .  S
O289        C295   1.271       .  A
O289       Cd292   2.543       .  S
C290        O298   1.265   1_556  A
C290        C805   1.493       .  S
C291        O296   1.271       .  A
C291        O294   1.264       .  A
C291        C533   1.492       .  S
Cd292       O299   2.401       .  S
Cd292       O298   2.460       .  S
Cd292       O297   2.466       .  S
Cd292       O293   2.454   1_554  S
Cd292       O296   2.519       .  S
Cd292       O294   2.422       .  S
C295        O299   1.261       .  A
C295        C356   1.471       .  S
O300        C303   1.268       .  A
O300       Cd305   2.466   1_554  S
C301        O310   1.265   1_554  A
C301        O306   1.267       .  A
O302        C308   1.269       .  A
O302       Cd305   2.531       .  S
C303        O311   1.262       .  A
C303        C850   1.492       .  S
C304        O309   1.270       .  A
C304        O307   1.262       .  A
C304        C565   1.489       .  S
Cd305       O312   2.386   1_556  S
Cd305       O311   2.449   1_556  S
Cd305       O310   2.446       .  S
Cd305       O306   2.468   1_556  S
Cd305       O309   2.484       .  S
Cd305       O307   2.440       .  S
C308        O312   1.261   1_556  A
C308        C347   1.465       .  S
O313        C316   1.268       .  A
O313       Cd318   2.470       .  S
C314        O323   1.263       .  A
C314        O319   1.269       .  A
C314       C1045   1.498       .  S
O315        C321   1.269       .  A
O315       Cd318   2.520       .  S
C316        O324   1.266       .  A
C316        C482   1.484       .  S
C317        O322   1.268       .  A
C317        O320   1.265       .  A
C317        C498   1.492       .  S
Cd318       O325   2.409       .  S
Cd318       O324   2.446       .  S
Cd318       O323   2.456       .  S
Cd318       O319   2.478       .  S
Cd318       O322   2.472       .  S
Cd318       O320   2.424       .  S
C321        O325   1.263       .  A
C321        C546   1.481       .  S
O326        C329   1.268       .  A
O326       Cd331   2.422       .  S
C327        O336   1.263       .  A
C327        O332   1.269       .  A
C327       C1026   1.484       .  S
O328        C334   1.269       .  A
O328       Cd331   2.500       .  S
C329        O337   1.266       .  A
C329        C453   1.491       .  S
C330        O335   1.271       .  A
C330        O333   1.262       .  A
C330        C469   1.489       .  S
Cd331       O338   2.427       .  S
Cd331       O337   2.484       .  S
Cd331       O336   2.430       .  S
Cd331       O332   2.491       .  S
Cd331       O335   2.488       .  S
Cd331       O333   2.424       .  S
C334        O338   1.263       .  A
C334        C514   1.478       .  S
O339        C342   1.265   1_554  A
O339       Cd344   2.437   1_554  S
C340        O349   1.268   1_554  A
C340        O345   1.265       .  A
C340       C1125   1.486       .  S
O341        C347   1.270       .  A
O341       Cd344   2.536       .  S
C342        O350   1.266       .  A
C342        C353   1.459   1_556  S
C343        O348   1.271       .  A
C343        O346   1.264       .  A
C343        C501   1.486       .  S
Cd344       O351   2.382       .  S
Cd344       O350   2.461       .  S
Cd344       O349   2.475       .  S
Cd344       O345   2.452   1_556  S
Cd344       O348   2.495       .  S
Cd344       O346   2.397       .  S
C347        O351   1.260       .  A
O352        C355   1.265       .  A
O352       Cd357   2.441   1_556  S
C353        O362   1.265       .  A
C353        O358   1.266   1_554  A
O354        C360   1.271       .  A
O354       Cd357   2.477       .  S
C355        O363   1.267   1_556  A
C355       C1061   1.484       .  S
C356        O361   1.270       .  A
C356        O359   1.262       .  A
Cd357       O364   2.444       .  S
Cd357       O363   2.441       .  S
Cd357       O362   2.427       .  S
Cd357       O358   2.459   1_554  S
Cd357       O361   2.541       .  S
Cd357       O359   2.410       .  S
C360        O364   1.262       .  A
C360        C466   1.493       .  S
O365        C368   1.268       .  A
O365       Cd370   2.454       .  S
C366        O375   1.264       .  A
C366        O371   1.265       .  A
C366        C898   1.489       .  S
O367        C373   1.271       .  A
O367       Cd370   2.517       .  S
C368        O376   1.266       .  A
C368        C485   1.486       .  S
C369        O374   1.269       .  A
C369        O372   1.263       .  A
C369        C626   1.485       .  S
Cd370       O377   2.432       .  S
Cd370       O376   2.456       .  S
Cd370       O375   2.438       .  S
Cd370       O371   2.492       .  S
Cd370       O374   2.524       .  S
Cd370       O372   2.427       .  S
C373        O377   1.260       .  A
C373        C434   1.497       .  S
O378        C381   1.265       .  A
O378       Cd383   2.476       .  S
C379        O388   1.268       .  A
C379        O384   1.266       .  A
C379        C450   1.493       .  S
O380        C386   1.268       .  A
O380       Cd383   2.527       .  S
C381        O389   1.264       .  A
C381        C917   1.483       .  S
C382        O387   1.268       .  A
C382        O385   1.265       .  A
C382        C418   1.490       .  S
Cd383       O390   2.427       .  S
Cd383       O389   2.443       .  S
Cd383       O388   2.446       .  S
Cd383       O384   2.454       .  S
Cd383       O387   2.475       .  S
Cd383       O385   2.462       .  S
C386        O390   1.262       .  A
C386        C578   1.485       .  S
O391        C394   1.263       .  A
O391       Cd396   2.450       .  S
C392        O401   1.266       .  A
C392        O397   1.266       .  A
C392        C405   1.459       .  S
O393        C399   1.270       .  A
O393       Cd396   2.532       .  S
C394        O402   1.268       .  A
C394        C933   1.496       .  S
C395        O400   1.269       .  A
C395        O398   1.265       .  A
C395        C421   1.495       .  S
Cd396       O403   2.380       .  S
Cd396       O402   2.460       .  S
Cd396       O401   2.448       .  S
Cd396       O397   2.444       .  S
Cd396       O400   2.488       .  S
Cd396       O398   2.404       .  S
C399        O403   1.261       .  A
O404        C407   1.266       .  A
O404       Cd409   2.459       .  S
C405        O414   1.265       .  A
C405        O410   1.266       .  A
O406        C412   1.271       .  A
O406       Cd409   2.538       .  S
C407        O415   1.268       .  A
C407        C981   1.486       .  S
C408        O413   1.272       .  A
C408        O411   1.262       .  A
C408        C437   1.495       .  S
Cd409       O416   2.403       .  S
Cd409       O415   2.443       .  S
Cd409       O414   2.442       .  S
Cd409       O410   2.452       .  S
Cd409       O413   2.503       .  S
Cd409       O411   2.434       .  S
C412        O416   1.262       .  A
C417        C418   1.408       .  A
C417        C422   1.413       .  A
C417        H424   1.084       .  S
C418        C419   1.418       .  A
C419        C420   1.404       .  A
C419        C426   1.521       .  S
C420        C421   1.408       .  A
C420        H425   1.082       .  S
C421        C422   1.421       .  A
C422        C423   1.520       .  S
C423        F427   1.384       .  S
C423        F428   1.383       .  S
C423        F429   1.384       .  S
C426        F430   1.384       .  S
C426        F431   1.383       .  S
C426        F432   1.385       .  S
C433        C434   1.405       .  A
C433        C438   1.410       .  A
C433        H440   1.085       .  S
C434        C435   1.426       .  A
C435        C436   1.409       .  A
C435        C442   1.522       .  S
C436        C437   1.403       .  A
C436        H441   1.084       .  S
C437        C438   1.425       .  A
C438        C439   1.521       .  S
C439        F443   1.385       .  S
C439        F444   1.384       .  S
C439        F445   1.383       .  S
C442        F446   1.384       .  S
C442        F447   1.383       .  S
C442        F448   1.385       .  S
C449        C450   1.408       .  A
C449        C454   1.409       .  A
C449        H456   1.082       .  S
C450        C451   1.422       .  A
C451        C452   1.404       .  A
C451        C458   1.521       .  S
C452        C453   1.405       .  A
C452        H457   1.082       .  S
C453        C454   1.422       .  A
C454        C455   1.522       .  S
C455        F459   1.386       .  S
C455        F460   1.383       .  S
C455        F461   1.383       .  S
C458        F462   1.383       .  S
C458        F463   1.383       .  S
C458        F464   1.386       .  S
C465        C466   1.404       .  A
C465        C470   1.407       .  A
C465        H472   1.082       .  S
C466        C467   1.425       .  A
C467        C468   1.409       .  A
C467        C474   1.521       .  S
C468        C469   1.403       .  A
C468        H473   1.082       .  S
C469        C470   1.422       .  A
C470        C471   1.521       .  S
C471        F475   1.385       .  S
C471        F476   1.383       .  S
C471        F477   1.384       .  S
C474        F478   1.383       .  S
C474        F479   1.383       .  S
C474        F480   1.385       .  S
C481        C482   1.405       .  A
C481        C486   1.408       .  A
C481        H488   1.083       .  S
C482        C483   1.418       .  A
C483        C484   1.407       .  A
C483        C490   1.520       .  S
C484        C485   1.405       .  A
C484        H489   1.083       .  S
C485        C486   1.420       .  A
C486        C487   1.520       .  S
C487        F491   1.385       .  S
C487        F492   1.383       .  S
C487        F493   1.383       .  S
C490        F494   1.382       .  S
C490        F495   1.384       .  S
C490        F496   1.385       .  S
C497        C498   1.410       .  A
C497        C502   1.408       .  A
C497        H504   1.079       .  S
C498        C499   1.420       .  A
C499        C500   1.406       .  A
C499        C506   1.521       .  S
C500        C501   1.407       .  A
C500        H505   1.078       .  S
C501        C502   1.416       .  A
C502        C503   1.520       .  S
C503        F507   1.385       .  S
C503        F508   1.383       .  S
C503        F509   1.383       .  S
C506        F510   1.383       .  S
C506        F511   1.383       .  S
C506        F512   1.385       .  S
C513        C514   1.401   1_455  A
C513        C518   1.403       .  A
C513        H520   1.084   1_455  S
C514        C515   1.417   1_655  A
C515        C516   1.412       .  A
C515        C522   1.517   1_455  S
C516        C517   1.405       .  A
C516        H521   1.085       .  S
C517        C518   1.416       .  A
C518        C519   1.516       .  S
C519        F523   1.385       .  S
C519        F524   1.382       .  S
C519        F525   1.384       .  S
C522        F526   1.383       .  S
C522        F527   1.383       .  S
C522        F528   1.384   1_655  S
C529        C530   1.411       .  A
C529        C534   1.411       .  A
C529        H536   1.078       .  S
C530        C531   1.420       .  A
C531        C532   1.408       .  A
C531        C538   1.520       .  S
C532        C533   1.407       .  A
C532        H537   1.079       .  S
C533        C534   1.418       .  A
C534        C535   1.519       .  S
C535        F539   1.385       .  S
C535        F540   1.383       .  S
C535        F541   1.383       .  S
C538        F542   1.383       .  S
C538        F543   1.384       .  S
C538        F544   1.385       .  S
C545        C546   1.401       .  A
C545        C550   1.399   1_655  A
C545        H552   1.083       .  S
C546        C547   1.418       .  A
C547        C548   1.415   1_655  A
C547        C554   1.516       .  S
C548        C549   1.406       .  A
C548        H553   1.082       .  S
C549        C550   1.417       .  A
C550        C551   1.519       .  S
C551        F555   1.385       .  S
C551        F556   1.383       .  S
C551        F557   1.384       .  S
C554        F558   1.383       .  S
C554        F559   1.383       .  S
C554        F560   1.385   1_655  S
C561        C562   1.408       .  A
C561        C566   1.411       .  A
C561        H568   1.083       .  S
C562        C563   1.429       .  A
C563        C564   1.407       .  A
C563        C570   1.523       .  S
C564        C565   1.400       .  A
C564        H569   1.082       .  S
C565        C566   1.421       .  A
C566        C567   1.521       .  S
C567        F571   1.385       .  S
C567        F572   1.384       .  S
C567        F573   1.382       .  S
C570        F574   1.383       .  S
C570        F575   1.383       .  S
C570        F576   1.385       .  S
C577        C578   1.404       .  A
C577        C582   1.404   1_655  A
C577        H584   1.083       .  S
C578        C579   1.420       .  A
C579        C580   1.414   1_655  A
C579        C586   1.518       .  S
C580        C581   1.405       .  A
C580        H585   1.081       .  S
C581        C582   1.416       .  A
C582        C583   1.518       .  S
C583        F587   1.385       .  S
C583        F588   1.384       .  S
C583        F589   1.383       .  S
C586        F590   1.383       .  S
C586        F591   1.384       .  S
C586        F592   1.385       .  S
C593        C594   1.405       .  A
C593        C598   1.407       .  A
C593        H600   1.084       .  S
C594        C595   1.418       .  A
C595        C596   1.402       .  A
C595        C602   1.521       .  S
C596        C597   1.405       .  A
C596        H601   1.083       .  S
C597        C598   1.422       .  A
C598        C599   1.521       .  S
C599        F603   1.385       .  S
C599        F604   1.383       .  S
C599        F605   1.383       .  S
C602        F606   1.383       .  S
C602        F607   1.384       .  S
C602        F608   1.385       .  S
C609        C610   1.402       .  A
C609        C614   1.407       .  A
C609        H616   1.083       .  S
C610        C611   1.420       .  A
C611        C612   1.402       .  A
C611        C618   1.520       .  S
C612        C613   1.402       .  A
C612        H617   1.082       .  S
C613        C614   1.426       .  A
C614        C615   1.521       .  S
C615        F619   1.386       .  S
C615        F620   1.383       .  S
C615        F621   1.383       .  S
C618        F622   1.383       .  S
C618        F623   1.383       .  S
C618        F624   1.385       .  S
C625        C626   1.405       .  A
C625        C630   1.403   1_655  A
C625        H632   1.083       .  S
C626        C627   1.421       .  A
C627        C628   1.412   1_655  A
C627        C634   1.518       .  S
C628        C629   1.403       .  A
C628        H633   1.080       .  S
C629        C630   1.415       .  A
C630        C631   1.517       .  S
C631        F635   1.385       .  S
C631        F636   1.384       .  S
C631        F637   1.383       .  S
C634        F638   1.382       .  S
C634        F639   1.383       .  S
C634        F640   1.385   1_655  S
C641        C642   1.407       .  A
C641        C646   1.410       .  A
C641        H648   1.083       .  S
C642        C643   1.422       .  A
C643        C644   1.409       .  A
C643        C650   1.520       .  S
C644        C645   1.405       .  A
C644        H649   1.083       .  S
C645        C646   1.421       .  A
C646        C647   1.520       .  S
C647        F651   1.384       .  S
C647        F652   1.384       .  S
C647        F653   1.383       .  S
C650        F654   1.383       .  S
C650        F655   1.384       .  S
C650        F656   1.385       .  S
C657        C658   1.409       .  A
C657        C662   1.409       .  A
C657        H664   1.078       .  S
C658        C659   1.422       .  A
C659        C660   1.410       .  A
C659        C666   1.521       .  S
C660        C661   1.408       .  A
C660        H665   1.080       .  S
C661        C662   1.418       .  A
C662        C663   1.520       .  S
C663        F667   1.385       .  S
C663        F668   1.383       .  S
C663        F669   1.384       .  S
C666        F670   1.383       .  S
C666        F671   1.384       .  S
C666        F672   1.385       .  S
C673        C674   1.406       .  A
C673        C678   1.407       .  A
C673        H680   1.083       .  S
C674        C675   1.422       .  A
C675        C676   1.406       .  A
C675        C682   1.520       .  S
C676        C677   1.402       .  A
C676        H681   1.083       .  S
C677        C678   1.415       .  A
C678        C679   1.519       .  S
C679        F683   1.385       .  S
C679        F684   1.382       .  S
C679        F685   1.384       .  S
C682        F686   1.383       .  S
C682        F687   1.383       .  S
C682        F688   1.385       .  S
C689        C690   1.402       .  A
C689        C694   1.407       .  A
C689        H696   1.084       .  S
C690        C691   1.418       .  A
C691        C692   1.408       .  A
C691        C698   1.522       .  S
C692        C693   1.408       .  A
C692        H697   1.084       .  S
C693        C694   1.422       .  A
C694        C695   1.519       .  S
C695        F699   1.385       .  S
C695        F700   1.383       .  S
C695        F701   1.382       .  S
C698        F702   1.383       .  S
C698        F703   1.385       .  S
C698        F704   1.384       .  S
C705        C706   1.405       .  A
C705        C710   1.405       .  A
C705        H712   1.085       .  S
C706        C707   1.420       .  A
C707        C708   1.408       .  A
C707        C714   1.520       .  S
C708        C709   1.408       .  A
C708        H713   1.085       .  S
C709        C710   1.423       .  A
C710        C711   1.522       .  S
C711        F715   1.385       .  S
C711        F716   1.383       .  S
C711        F717   1.384       .  S
C714        F718   1.383       .  S
C714        F719   1.383       .  S
C714        F720   1.385       .  S
C721        C722   1.406       .  A
C721        C726   1.411       .  A
C721        H728   1.082       .  S
C722        C723   1.427       .  A
C723        C724   1.414       .  A
C723        C730   1.520       .  S
C724        C725   1.404       .  A
C724        H729   1.081       .  S
C725        C726   1.424       .  A
C726        C727   1.520   1_565  S
C727        F731   1.385       .  S
C727        F732   1.384       .  S
C727        F733   1.382   1_545  S
C730        F734   1.383       .  S
C730        F735   1.383       .  S
C730        F736   1.385       .  S
C737        C738   1.399       .  A
C737        C742   1.403       .  A
C737        H744   1.081       .  S
C738        C739   1.417       .  A
C739        C740   1.410       .  A
C739        C746   1.521       .  S
C740        C741   1.407       .  A
C740        H745   1.081       .  S
C741        C742   1.420       .  A
C742        C743   1.521       .  S
C743        F747   1.384       .  S
C743        F748   1.382       .  S
C743        F749   1.384       .  S
C746        F750   1.384       .  S
C746        F751   1.383       .  S
C746        F752   1.384       .  S
C753        C754   1.403       .  A
C753        C758   1.406       .  A
C753        H760   1.082       .  S
C754        C755   1.424       .  A
C755        C756   1.409       .  A
C755        C762   1.522       .  S
C756        C757   1.404       .  A
C756        H761   1.081       .  S
C757        C758   1.424       .  A
C758        C759   1.522       .  S
C759        F763   1.385       .  S
C759        F764   1.383       .  S
C759        F765   1.383       .  S
C762        F766   1.384       .  S
C762        F767   1.383       .  S
C762        F768   1.385       .  S
C769        C770   1.404       .  A
C769        C774   1.406       .  A
C769        H776   1.082       .  S
C770        C771   1.422       .  A
C771        C772   1.413       .  A
C771        C778   1.521       .  S
C772        C773   1.410       .  A
C772        H777   1.082       .  S
C773        C774   1.426       .  A
C774        C775   1.524       .  S
C775        F779   1.385       .  S
C775        F780   1.384   1_554  S
C775        F781   1.383       .  S
C778        F782   1.384       .  S
C778        F783   1.383       .  S
C778        F784   1.384       .  S
C785        C786   1.406       .  A
C785        C790   1.407       .  A
C785        H792   1.084       .  S
C786        C787   1.418       .  A
C787        C788   1.407       .  A
C787        C794   1.518       .  S
C788        C789   1.404       .  A
C788        H793   1.083       .  S
C789        C790   1.419       .  A
C790        C791   1.521       .  S
C791        F795   1.385       .  S
C791        F796   1.382   1_556  S
C791        F797   1.384       .  S
C794        F798   1.383       .  S
C794        F799   1.382       .  S
C794        F800   1.384       .  S
C801        C802   1.407       .  A
C801        C806   1.409       .  A
C801        H808   1.084       .  S
C802        C803   1.421       .  A
C803        C804   1.409       .  A
C803        C810   1.520       .  S
C804        C805   1.406       .  A
C804        H809   1.083       .  S
C805        C806   1.422       .  A
C806        C807   1.521   1_556  S
C807        F811   1.385   1_554  S
C807        F812   1.384       .  S
C807        F813   1.383       .  S
C810        F814   1.383       .  S
C810        F815   1.384       .  S
C810        F816   1.384       .  S
C817        C818   1.408       .  A
C817        C822   1.410       .  A
C817        H824   1.083       .  S
C818        C819   1.425       .  A
C819        C820   1.407       .  A
C819        C826   1.522       .  S
C820        C821   1.406       .  A
C820        H825   1.083       .  S
C821        C822   1.423       .  A
C822        C823   1.521       .  S
C823        F827   1.385       .  S
C823        F828   1.383       .  S
C823        F829   1.383       .  S
C826        F830   1.383       .  S
C826        F831   1.383       .  S
C826        F832   1.385       .  S
C833        C834   1.402       .  A
C833        C838   1.407       .  A
C833        H840   1.082       .  S
C834        C835   1.423       .  A
C835        C836   1.410       .  A
C835        C842   1.519       .  S
C836        C837   1.405       .  A
C836        H841   1.081       .  S
C837        C838   1.423       .  A
C838        C839   1.520   1_565  S
C839        F843   1.385       .  S
C839        F844   1.383   1_545  S
C839        F845   1.384       .  S
C842        F846   1.383       .  S
C842        F847   1.384       .  S
C842        F848   1.385       .  S
C849        C850   1.406       .  A
C849        C854   1.407       .  A
C849        H856   1.082       .  S
C850        C851   1.423       .  A
C851        C852   1.405       .  A
C851        C858   1.523       .  S
C852        C853   1.407       .  A
C852        H857   1.081       .  S
C853        C854   1.422       .  A
C854        C855   1.521       .  S
C855        F859   1.385       .  S
C855        F860   1.384       .  S
C855        F861   1.383       .  S
C858        F862   1.383       .  S
C858        F863   1.383   1_554  S
C858        F864   1.385       .  S
C865        C866   1.406       .  A
C865        C870   1.407       .  A
C865        H872   1.083       .  S
C866        C867   1.421       .  A
C867        C868   1.404       .  A
C867        C874   1.520       .  S
C868        C869   1.403       .  A
C868        H873   1.086       .  S
C869        C870   1.420       .  A
C870        C871   1.522       .  S
C871        F875   1.384       .  S
C871        F876   1.384       .  S
C871        F877   1.383       .  S
C874        F878   1.383       .  S
C874        F879   1.384       .  S
C874        F880   1.385       .  S
C881        C882   1.411       .  A
C881        C886   1.407       .  A
C881        H888   1.080       .  S
C882        C883   1.422       .  A
C883        C884   1.408       .  A
C883        C890   1.520       .  S
C884        C885   1.405       .  A
C884        H889   1.081       .  S
C885        C886   1.414       .  A
C886        C887   1.520       .  S
C887        F891   1.385       .  S
C887        F892   1.382       .  S
C887        F893   1.384       .  S
C890        F894   1.383       .  S
C890        F895   1.383       .  S
C890        F896   1.385       .  S
C897        C898   1.405       .  A
C897        C902   1.405       .  A
C897        H904   1.083       .  S
C898        C899   1.421       .  A
C899        C900   1.409       .  A
C899        C906   1.519       .  S
C900        C901   1.405       .  A
C900        H905   1.084       .  S
C901        C902   1.420       .  A
C902        C903   1.522       .  S
C903        F907   1.385       .  S
C903        F908   1.383       .  S
C903        F909   1.384       .  S
C906        F910   1.383       .  S
C906        F911   1.383       .  S
C906        F912   1.385       .  S
C913        C914   1.406       .  A
C913        C918   1.411       .  A
C913        H920   1.078       .  S
C914        C915   1.416       .  A
C915        C916   1.405       .  A
C915        C922   1.519       .  S
C916        C917   1.404       .  A
C916        H921   1.080       .  S
C917        C918   1.419       .  A
C918        C919   1.520       .  S
C919        F923   1.384       .  S
C919        F924   1.383       .  S
C919        F925   1.384       .  S
C922        F926   1.384       .  S
C922        F927   1.382       .  S
C922        F928   1.385       .  S
C929        C930   1.404       .  A
C929        C934   1.409       .  A
C929        H936   1.085       .  S
C930        C931   1.422       .  A
C931        C932   1.406       .  A
C931        C938   1.523       .  S
C932        C933   1.406       .  A
C932        H937   1.080       .  S
C933        C934   1.425       .  A
C934        C935   1.521       .  S
C935        F939   1.385       .  S
C935        F940   1.383       .  S
C935        F941   1.384       .  S
C938        F942   1.383       .  S
C938        F943   1.384       .  S
C938        F944   1.385       .  S
C945        C946   1.406       .  A
C945        C950   1.415       .  A
C945        H952   1.083       .  S
C946        C947   1.417       .  A
C947        C948   1.405       .  A
C947        C954   1.517       .  S
C948        C949   1.403       .  A
C948        H953   1.085       .  S
C949        C950   1.419       .  A
C950        C951   1.517       .  S
C951        F955   1.385       .  S
C951        F956   1.383       .  S
C951        F957   1.383       .  S
C954        F958   1.384       .  S
C954        F959   1.382       .  S
C954        F960   1.385       .  S
C961        C962   1.403       .  A
C961        C966   1.411       .  A
C961        H968   1.082       .  S
C962        C963   1.422       .  A
C963        C964   1.408       .  A
C963        C970   1.520       .  S
C964        C965   1.405       .  A
C964        H969   1.083       .  S
C965        C966   1.428       .  A
C966        C967   1.521   1_565  S
C967        F971   1.386       .  S
C967        F972   1.382   1_545  S
C967        F973   1.383       .  S
C970        F974   1.383       .  S
C970        F975   1.384       .  S
C970        F976   1.385       .  S
C977        C978   1.404       .  A
C977        C982   1.409       .  A
C977        H984   1.085       .  S
C978        C979   1.420       .  A
C979        C980   1.404       .  A
C979        C986   1.519       .  S
C980        C981   1.404       .  A
C980        H985   1.081       .  S
C981        C982   1.421       .  A
C982        C983   1.519       .  S
C983        F987   1.385       .  S
C983        F988   1.384       .  S
C983        F989   1.383       .  S
C986        F990   1.383       .  S
C986        F991   1.383       .  S
C986        F992   1.384       .  S
C993        C994   1.403       .  A
C993        C998   1.406       .  A
C993       H1000   1.082       .  S
C994        C995   1.418       .  A
C995        C996   1.412       .  A
C995       C1002   1.516       .  S
C996        C997   1.405       .  A
C996       H1001   1.082       .  S
C997        C998   1.419       .  A
C998        C999   1.521       .  S
C999       F1003   1.385       .  S
C999       F1004   1.382       .  S
C999       F1005   1.384       .  S
C1002      F1006   1.380       .  S
C1002      F1007   1.382       .  S
C1002      F1008   1.385       .  S
C1009      C1010   1.408       .  A
C1009      C1014   1.410       .  A
C1009      H1016   1.080       .  S
C1010      C1011   1.419       .  A
C1011      C1012   1.408       .  A
C1011      C1018   1.521       .  S
C1012      C1013   1.409       .  A
C1012      H1017   1.079       .  S
C1013      C1014   1.420       .  A
C1014      C1015   1.520       .  S
C1015      F1019   1.385       .  S
C1015      F1020   1.383       .  S
C1015      F1021   1.383       .  S
C1018      F1022   1.384       .  S
C1018      F1023   1.384       .  S
C1018      F1024   1.384       .  S
C1025      C1026   1.403       .  A
C1025      C1030   1.409       .  A
C1025      H1032   1.086       .  S
C1026      C1027   1.421       .  A
C1027      C1028   1.406       .  A
C1027      C1034   1.521       .  S
C1028      C1029   1.403       .  A
C1028      H1033   1.086       .  S
C1029      C1030   1.420       .  A
C1030      C1031   1.519       .  S
C1031      F1035   1.384       .  S
C1031      F1036   1.383       .  S
C1031      F1037   1.384       .  S
C1034      F1038   1.384       .  S
C1034      F1039   1.382       .  S
C1034      F1040   1.385       .  S
C1041      C1042   1.406       .  A
C1041      C1046   1.407       .  A
C1041      H1048   1.085   1_556  S
C1042      C1043   1.422       .  A
C1043      C1044   1.409       .  A
C1043      C1050   1.520       .  S
C1044      C1045   1.407       .  A
C1044      H1049   1.085       .  S
C1045      C1046   1.425       .  A
C1046      C1047   1.523       .  S
C1047      F1051   1.385   1_556  S
C1047      F1052   1.383       .  S
C1047      F1053   1.383       .  S
C1050      F1054   1.384       .  S
C1050      F1055   1.383       .  S
C1050      F1056   1.385       .  S
C1057      C1058   1.403       .  A
C1057      C1062   1.405       .  A
C1057      H1064   1.087       .  S
C1058      C1059   1.421       .  A
C1059      C1060   1.404       .  A
C1059      C1066   1.521       .  S
C1060      C1061   1.404       .  A
C1060      H1065   1.086       .  S
C1061      C1062   1.421       .  A
C1062      C1063   1.521       .  S
C1063      F1067   1.385       .  S
C1063      F1068   1.383       .  S
C1063      F1069   1.383       .  S
C1066      F1070   1.383       .  S
C1066      F1071   1.384       .  S
C1066      F1072   1.385   1_556  S
C1073      C1074   1.403       .  A
C1073      C1078   1.405       .  A
C1073      H1080   1.084       .  S
C1074      C1075   1.417       .  A
C1075      C1076   1.413       .  A
C1075      C1082   1.517       .  S
C1076      C1077   1.406       .  A
C1076      H1081   1.083       .  S
C1077      C1078   1.420       .  A
C1078      C1079   1.520       .  S
C1079      F1083   1.385       .  S
C1079      F1084   1.384       .  S
C1079      F1085   1.383       .  S
C1082      F1086   1.383       .  S
C1082      F1087   1.384       .  S
C1082      F1088   1.384       .  S
C1089      C1090   1.406       .  A
C1089      C1094   1.410       .  A
C1089      H1096   1.082       .  S
C1090      C1091   1.422       .  A
C1091      C1092   1.406       .  A
C1091      C1098   1.522       .  S
C1092      C1093   1.406       .  A
C1092      H1097   1.081       .  S
C1093      C1094   1.422       .  A
C1094      C1095   1.519       .  S
C1095      F1099   1.385       .  S
C1095      F1100   1.383       .  S
C1095      F1101   1.383       .  S
C1098      F1102   1.383       .  S
C1098      F1103   1.384       .  S
C1098      F1104   1.385       .  S
C1105      C1106   1.412       .  A
C1105      C1110   1.409       .  A
C1105      H1112   1.084       .  S
C1106      C1107   1.423       .  A
C1107      C1108   1.409       .  A
C1107      C1114   1.520       .  S
C1108      C1109   1.405       .  A
C1108      H1113   1.084       .  S
C1109      C1110   1.416       .  A
C1110      C1111   1.520       .  S
C1111      F1115   1.384       .  S
C1111      F1116   1.384       .  S
C1111      F1117   1.383       .  S
C1114      F1118   1.383       .  S
C1114      F1119   1.383   1_565  S
C1114      F1120   1.385   1_565  S
C1121      C1122   1.403       .  A
C1121      C1126   1.406       .  A
C1121      H1128   1.081       .  S
C1122      C1123   1.421       .  A
C1123      C1124   1.409       .  A
C1123      C1130   1.522       .  S
C1124      C1125   1.404       .  A
C1124      H1129   1.082       .  S
C1125      C1126   1.420       .  A
C1126      C1127   1.519       .  S
C1127      F1131   1.385       .  S
C1127      F1132   1.383       .  S
C1127      F1133   1.383       .  S
C1130      F1134   1.383       .  S
C1130      F1135   1.384       .  S
C1130      F1136   1.384       .  S
C1137      C1138   1.404       .  A
C1137      C1142   1.414       .  A
C1137      H1144   1.084       .  S
C1138      C1139   1.417       .  A
C1139      C1140   1.403       .  A
C1139      C1146   1.520       .  S
C1140      C1141   1.404       .  A
C1140      H1145   1.086       .  S
C1141      C1142   1.423       .  A
C1142      C1143   1.518       .  S
C1143      F1147   1.385       .  S
C1143      F1148   1.383       .  S
C1143      F1149   1.383       .  S
C1146      F1150   1.382       .  S
C1146      F1151   1.384       .  S
C1146      F1152   1.385       .  S
C1153      C1154   1.404       .  A
C1153      C1158   1.404       .  A
C1153      H1160   1.082       .  S
C1154      C1155   1.421       .  A
C1155      C1156   1.406       .  A
C1155      C1162   1.521       .  S
C1156      C1157   1.405       .  A
C1156      H1161   1.083       .  S
C1157      C1158   1.421       .  A
C1158      C1159   1.522       .  S
C1159      F1163   1.385       .  S
C1159      F1164   1.383       .  S
C1159      F1165   1.384       .  S
C1162      F1166   1.383       .  S
C1162      F1167   1.383       .  S
C1162      F1168   1.385       .  S
C1169      C1170   1.400       .  A
C1169      C1174   1.407       .  A
C1169      H1176   1.082       .  S
C1170      C1171   1.420       .  A
C1171      C1172   1.407       .  A
C1171      C1178   1.521       .  S
C1172      C1173   1.407       .  A
C1172      H1177   1.081       .  S
C1173      C1174   1.428       .  A
C1174      C1175   1.523       .  S
C1175      F1179   1.385       .  S
C1175      F1180   1.383       .  S
C1175      F1181   1.384       .  S
C1178      F1182   1.383       .  S
C1178      F1183   1.383       .  S
C1178      F1184   1.385       .  S
