geometry optimzed in LAMMPS
_audit_creation_date              2020-12-01 
_audit_creation_method            'lammps2cif' 
_symmetry_space_group_name_H-M    'P1' 
_symmetry_Int_Tables_number       1 
_symmetry_cell_setting            triclinic 
loop_ 
_symmetry_equiv_pos_as_xyz 
  x,y,z 
_cell_length_a                    56.6987439 
_cell_length_b                    56.83175298643921 
_cell_length_c                    81.7310452057294 
_cell_angle_alpha                 89.89058290914711 
_cell_angle_beta                  90.13437306847187 
_cell_angle_gamma                 119.91306955368961 
loop_ 
_atom_site_label 
_atom_site_type_symbol 
_atom_site_fract_x 
_atom_site_fract_y 
_atom_site_fract_z 
_atom_site_charge 
N1          N  0.03410852  0.03388768  0.88838639    -0.27200
N2          N  0.04252149  0.04724815  0.90233193    -0.35100
C3          C  0.06548745  0.07093624  0.89963275     0.01100
C4          C  0.07200251  0.07270662  0.88313392     0.07200
C5          C  0.05158358  0.04861053  0.87646490    -0.05900
H6          H  0.07686977  0.08550376  0.90911377     0.07800
H7          H  0.05000202  0.04150524  0.86404158     0.09000
Cu8        Cu  0.02412005  0.03115195  0.92462346     0.44200
Cu9        Cu  0.00027902  0.49541711  0.88638736     0.42000
Cu10       Cu  0.47405057  0.45951285  0.92469158     0.43900
N11         N  0.00687696  0.00867983  0.94564836    -0.34600
N12         N  0.48964296  0.48223977  0.94573321    -0.28800
C13         C  0.48411384  0.47352641  0.96131168    -0.04900
C14         C  0.49837706  0.99564174  0.97145761     0.07300
C15         C  0.01250129  0.01758214  0.96115915     0.01100
H16         H  0.47065876  0.45269635  0.96494991     0.08700
H17         H  0.02653715  0.03833538  0.96466015     0.07800
N18         N  0.45834091  0.44313834  0.90200969    -0.36000
N19         N  0.46720847  0.45641661  0.88805480    -0.28200
C20         C  0.45121246  0.44072593  0.87583421    -0.03500
C21         C  0.43116953  0.41638307  0.88241350     0.05200
C22         C  0.43668326  0.41862262  0.89905574     0.03300
H23         H  0.45364570  0.44692631  0.86314265     0.08400
H24         H  0.42587451  0.40371472  0.90847043     0.07200
N25         N  0.47561953  0.44635314  0.73884243    -0.27200
N26         N  0.46412590  0.43649041  0.72449873    -0.35100
C27         C  0.43938764  0.41467613  0.72693915     0.01100
C28         C  0.43492146  0.41067157  0.74363267     0.07200
C29         C  0.45846228  0.43109961  0.75077855    -0.05900
H30         H  0.42568352  0.40258222  0.71724550     0.07800
H31         H  0.46314142  0.43431991  0.76369695     0.09000
Cu32       Cu  0.48301322  0.45232896  0.70221603     0.44200
Cu33       Cu  0.01424184  0.47996830  0.74155941     0.42000
Cu34       Cu  0.05444692  0.00263685  0.70454240     0.43900
N35         N  0.00770615  0.46894464  0.68182529    -0.34600
N36         N  0.03420171  0.48597096  0.68276578    -0.28800
C37         C  0.04453452  0.49225587  0.66755601    -0.04900
C38         C  0.02346119  0.47888661  0.65652938     0.07300
C39         C  0.00038394  0.46434415  0.66596491     0.01100
H40         H  0.06564479  0.00631308  0.66474325     0.08700
H41         H  0.47983493  0.45124766  0.66163952     0.07800
N42         N  0.06735850  0.02234568  0.72684302    -0.36000
N43         N  0.05245360  0.01454529  0.74026986    -0.28200
C44         C  0.06554414  0.03303631  0.75207725    -0.03500
C45         C  0.08991179  0.05367631  0.74581223     0.05200
C46         C  0.09036567  0.04587188  0.72976907     0.03300
H47         H  0.05746142  0.03184278  0.76421430     0.08400
H48         H  0.10608634  0.05635470  0.72073160     0.07200
N49         N  0.00988646  0.01787503  0.40569459    -0.27200
N50         N  0.00059602  0.02208537  0.39180762    -0.35100
C51         C  0.47840071  0.02410945  0.39491170     0.01100
C52         C  0.47349465  0.02107700  0.41159763     0.07200
C53         C  0.49384203  0.01705399  0.41801201    -0.05900
H54         H  0.46595535  0.02612688  0.38558443     0.07800
H55         H  0.99639995  0.01307663  0.43065090     0.09000
Cu56       Cu  0.01650957  0.02142747  0.36916861     0.44200
Cu57       Cu  0.04225950  0.01076308  0.40705126     0.42000
Cu58       Cu  0.05951549  0.99101784  0.36885806     0.43900
N59         N  0.03143335  0.01351956  0.34806928    -0.34600
N60         N  0.04556841  0.00075296  0.34787515    -0.28800
C61         C  0.05099470  0.99769272  0.33226044    -0.04900
C62         C  0.04005244  0.00944403  0.32222922     0.07300
C63         C  0.02787272  0.01932875  0.33262722     0.01100
H64         H  0.06274349  0.98837025  0.32853469     0.08700
H65         H  0.01692684  0.02967443  0.32923223     0.07800
N66         N  0.07830189  0.99277749  0.39097236    -0.36000
N67         N  0.07277734  0.00105918  0.40478065    -0.28200
C68         C  0.09042957  0.00273741  0.41635485    -0.03500
C69         C  0.10813937  0.99530354  0.40951873     0.05200
C70         C  0.09949923  0.98879520  0.39341407     0.03300
H71         H  0.09081166  0.00968572  0.42871693     0.08400
H72         H  0.10801186  0.98193697  0.38400051     0.07200
N73         N  0.06939961  0.48773392  0.55612157    -0.27200
N74         N  0.08103237  0.48864430  0.57032126    -0.35100
C75         C  0.10433270  0.48841798  0.56756893     0.01100
C76         C  0.10747378  0.48713806  0.55079791     0.07200
C77         C  0.08496435  0.48694650  0.54399469    -0.05900
H78         H  0.11798663  0.48930871  0.57711848     0.07800
H79         H  0.07991909  0.48575105  0.53113814     0.09000
Cu80       Cu  0.06389844  0.48894577  0.59276244     0.44200
Cu81       Cu  0.03237336  0.48660728  0.55364743     0.42000
Cu82       Cu  0.49508087  0.47845887  0.59075694     0.43900
N83         N  0.04040670  0.48509392  0.61320292    -0.34600
N84         N  0.01493822  0.47990644  0.61242108    -0.28800
C85         C  0.00494748  0.47672580  0.62768774    -0.04900
C86         C  0.02520272  0.48045878  0.63858175     0.07300
C87         C  0.04743825  0.48587379  0.62901630     0.01100
H88         H  0.48457906  0.47242160  0.63063036     0.08700
H89         H  0.06706740  0.48945349  0.63321604     0.07800
N90         N  0.48083098  0.48095924  0.56777200    -0.36000
N91         N  0.49466454  0.48436362  0.55414192    -0.28200
C92         C  0.48034752  0.48596071  0.54144703    -0.03500
C93         C  0.45630375  0.48351154  0.54737526     0.05200
C94         C  0.45732652  0.48021213  0.56412300     0.03300
H95         H  0.48686476  0.48835408  0.52882956     0.08400
H96         H  0.44227058  0.47789032  0.57306453     0.07200
N97         N  0.02111288  0.04007769  0.07225630    -0.27200
N98         N  0.02021942  0.05162833  0.05840706    -0.35100
C99         C  0.02156482  0.07540428  0.06176140     0.01100
C100        C  0.02310865  0.07887187  0.07856423     0.07200
C101        C  0.02286096  0.05609565  0.08482940    -0.05900
H102        H  0.02097082  0.08893665  0.05264961     0.07800
H103        H  0.02419303  0.05159743  0.09755048     0.09000
Cu104      Cu  0.01573504  0.03375000  0.03574498     0.44200
Cu105      Cu  0.01965923  0.00299633  0.07327625     0.42000
Cu106      Cu  0.99878152  0.46308964  0.03607774     0.43900
N107        N  0.50669299  0.01000463  0.01499397    -0.34600
N108        N  0.49910031  0.48390084  0.01514161    -0.28800
C109        C  0.49423593  0.47452019  0.99968644    -0.04900
C110        C  0.49935969  0.49586647  0.98938578     0.07300
C111        C  0.50725028  0.01802903  0.99946289     0.01100
H112        H  0.48847653  0.45399204  0.99618175     0.08700
H113        H  0.51305479  0.03851545  0.99579776     0.07800
N114        N  0.00732476  0.44998455  0.05782612    -0.36000
N115        N  0.01592848  0.46500212  0.07117892    -0.28200
C116        C  0.02124537  0.45146115  0.08274526    -0.03500
C117        C  0.01572425  0.42655647  0.07644842     0.05200
C118        C  0.00668659  0.42635233  0.06059800     0.03300
H119        H  0.02879700  0.45938706  0.09483166     0.08400
H120        H  0.99976745  0.41022640  0.05168582     0.07200
N121        N  0.05574444  0.48653760  0.22030245    -0.27200
N122        N  0.05081930  0.47222332  0.23386477    -0.35100
C123        C  0.04842747  0.44810765  0.23026511     0.01100
C124        C  0.05212279  0.44698916  0.21355236     0.07200
C125        C  0.05705881  0.47204992  0.20770206    -0.05900
H126        H  0.04369493  0.43234224  0.23921843     0.07800
H127        H  0.06127343  0.47948707  0.19527559     0.09000
Cu128      Cu  0.04735008  0.48588043  0.25666102     0.44200
Cu129      Cu  0.05768576  0.02388986  0.21960299     0.42000
Cu130      Cu  0.04312362  0.04683308  0.25825010     0.43900
N131        N  0.04449686  0.00312224  0.27827013    -0.34600
N132        N  0.04179604  0.02489896  0.27889001    -0.28800
C133        C  0.03956289  0.03039619  0.29462926    -0.04900
C134        C  0.04134147  0.01135128  0.30431255     0.07300
C135        C  0.04456741  0.99444542  0.29357186     0.01100
H136        H  0.03738684  0.04730887  0.29872164     0.08700
H137        H  0.04643793  0.47690928  0.29661398     0.07800
N138        N  0.04893191  0.06659563  0.23598276    -0.36000
N139        N  0.05458591  0.05851981  0.22210930    -0.28200
C140        C  0.05747717  0.07604898  0.21016517    -0.03500
C141        C  0.05368427  0.09629341  0.21683276     0.05200
C142        C  0.04809697  0.08948910  0.23320429     0.03300
H143        H  0.06145745  0.07380014  0.19749658     0.08400
H144        H  0.04393597  0.10048878  0.24247647     0.07200
C145        C  0.03295631  0.28146257  0.13756222     0.02400
C146        C  0.03840149  0.28455269  0.15456914     0.02300
C147        C  0.04170487  0.26492563  0.16306160    -0.18200
C148        C  0.03993253  0.24243190  0.15494303     0.02400
C149        C  0.03494233  0.23954625  0.13790304     0.02300
C150        C  0.03097798  0.25882329  0.12944766    -0.18200
H151        H  0.02717019  0.25663773  0.11637867     0.04400
H152        H  0.04528315  0.26695708  0.17615563     0.04400
C153        C  0.23365380  0.21780988  0.80606509     0.02400
C154        C  0.23420645  0.21974195  0.82337034     0.02300
C155        C  0.25618248  0.24202341  0.83092611    -0.18200
C156        C  0.27729616  0.26241431  0.82169505     0.02400
C157        C  0.27686680  0.26043814  0.80442900     0.02300
C158        C  0.25500872  0.23805663  0.79685002    -0.18200
H159        H  0.25475661  0.23614569  0.78364389     0.04400
H160        H  0.25702627  0.24345037  0.84416520     0.04400
C161        C  0.26029906  0.48844445  0.48699452     0.02400
C162        C  0.26252768  0.49336155  0.46991014     0.02300
C163        C  0.28515445  0.99578461  0.46151253    -0.18200
C164        C  0.30561553  0.49358799  0.46978643     0.02400
C165        C  0.30343876  0.48858480  0.48677532     0.02300
C166        C  0.28090262  0.48626066  0.49523341    -0.18200
H167        H  0.27934587  0.48264978  0.50832132     0.04400
H168        H  0.28703003  0.99973020  0.44845475     0.04400
C169        C  0.04264619  0.22179804  0.16459658    -0.19800
C170        C  0.02063881  0.19511352  0.16613127     0.36400
C171        C  0.02429186  0.17576918  0.17470073    -0.25700
C172        C  0.04925873  0.18275967  0.18214358     0.02900
C173        C  0.07118840  0.20958045  0.18084597     0.27700
C174        C  0.06760702  0.22891188  0.17210790    -0.24900
N175        N  0.49463251  0.18789363  0.15910444    -0.82300
H176        H  0.50750699  0.15514231  0.17574218     0.13500
C177        C  0.05159410  0.16177361  0.19164970     0.02800
N178        N  0.09685215  0.21705814  0.18847128    -0.80800
H179        H  0.08438659  0.24952187  0.17094985     0.18300
C180        C  0.07056761  0.15407445  0.18697385    -0.25700
C181        C  0.07214377  0.13316884  0.19524238     0.36400
C182        C  0.05400118  0.11943685  0.20825481    -0.19700
C183        C  0.03555616  0.12771746  0.21315584    -0.24900
C184        C  0.03424485  0.14880430  0.20503703     0.27700
H185        H  0.08398212  0.16424593  0.17674333     0.13500
N186        N  0.09229175  0.12613140  0.19061499    -0.82200
H187        H  0.02172818  0.11736402  0.22318055     0.18300
N188        N  0.01526885  0.15707304  0.21025873    -0.80800
H189        H  0.10394292  0.13813145  0.18082084     0.34000
H190        H  0.10561857  0.13072088  0.20050183     0.38500
H191        H  0.50384441  0.14539772  0.22020992     0.33900
H192        H  0.52653988  0.17709368  0.21440771     0.30600
H193        H  0.11087453  0.23750542  0.18626608     0.33900
H194        H  0.09371467  0.21500975  0.20111638     0.30600
H195        H  0.48726603  0.19912400  0.16513740     0.38500
H196        H  0.48063670  0.16741828  0.16123962     0.34000
C197        C  0.05034141  0.42346138  0.20438301    -0.19800
C198        C  0.04462154  0.41953433  0.18738069     0.36400
C199        C  0.04298449  0.39669702  0.17963039    -0.25700
C200        C  0.04589635  0.37719134  0.18850946     0.02900
C201        C  0.05099437  0.38065127  0.20543936     0.27700
C202        C  0.05364862  0.40390737  0.21311404    -0.24900
N203        N  0.03973545  0.43813010  0.17805078    -0.82300
H204        H  0.03900278  0.39383046  0.16659715     0.13500
C205        C  0.04352874  0.35316294  0.17993795     0.02800
N206        N  0.05309328  0.36031564  0.21480290    -0.80800
H207        H  0.05821416  0.40656561  0.22605969     0.18300
C208        C  0.06555060  0.34842433  0.18033228    -0.25700
C209        C  0.06418009  0.32592941  0.17235308     0.36400
C210        C  0.04031026  0.30795437  0.16372848    -0.19700
C211        C  0.01813750  0.31248749  0.16354814    -0.24900
C212        C  0.01951277  0.33496474  0.17154373     0.27700
H213        H  0.08396141  0.36251032  0.18678567     0.13500
N214        N  0.08694711  0.32136351  0.17288750    -0.82200
H215        H  0.49966005  0.29834136  0.15718138     0.18300
N216        N  0.49659545  0.33928429  0.17130811    -0.80800
H217        H  0.10286768  0.33645602  0.17975593     0.34000
H218        H  0.09425825  0.32298609  0.16097606     0.38500
H219        H  0.48062597  0.32418396  0.16446648     0.33900
H220        H  0.48955946  0.33737419  0.18332098     0.30600
H221        H  0.05690197  0.36591099  0.22712149     0.33900
H222        H  0.03415996  0.34252300  0.21434405     0.30600
H223        H  0.02167223  0.43659179  0.18236339     0.38500
H224        H  0.03643994  0.43252588  0.16571540     0.34000
C225        C  0.02517552  0.10231093  0.08765663    -0.19800
C226        C  0.01109388  0.09897857  0.10249587     0.36400
C227        C  0.01365457  0.12196317  0.11056092    -0.25700
C228        C  0.02973047  0.14802025  0.10400134     0.02900
C229        C  0.04373352  0.15138298  0.08920293     0.27700
C230        C  0.04129320  0.12846727  0.08116308    -0.24900
N231        N  0.49368837  0.07232150  0.10907568    -0.82300
H232        H  0.50282156  0.11959343  0.12190522     0.13500
C233        C  0.03101229  0.17158943  0.11247528     0.02800
N234        N  0.06014492  0.17803659  0.08235622    -0.80800
H235        H  0.05212332  0.13104024  0.06979760     0.18300
C236        C  0.05553361  0.19100599  0.11965738    -0.25700
C237        C  0.05745428  0.21372549  0.12768500     0.36400
C238        C  0.03426500  0.21676851  0.12868491    -0.19700
C239        C  0.50990522  0.19760269  0.12120500    -0.24900
C240        C  0.50803317  0.17495329  0.11311585     0.27700
H241        H  0.07316840  0.18837747  0.11896990     0.13500
N242        N  0.08280238  0.23375273  0.13479507    -0.82200
H243        H  0.49221429  0.20012894  0.12194548     0.18300
N244        N  0.48295645  0.15533312  0.10553147    -0.80800
H245        H  0.09779897  0.22840016  0.13311460     0.34000
H246        H  0.08924077  0.25197918  0.12849925     0.38500
H247        H  0.46795517  0.16068424  0.10719470     0.33900
H248        H  0.48639268  0.15594069  0.09293367     0.30600
H249        H  0.06922521  0.17702414  0.07145976     0.33900
H250        H  0.04717345  0.18549947  0.07929758     0.30600
H251        H  0.47765903  0.06191189  0.10082177     0.38500
H252        H  0.48495224  0.07349281  0.12007591     0.34000
C253        C  0.03036713  0.30226584  0.12798388    -0.19800
C254        C  0.05282151  0.32853262  0.12590537     0.36400
C255        C  0.04948112  0.34842286  0.11781764    -0.25700
C256        C  0.02408405  0.34239302  0.11156472     0.02900
C257        C  0.00158908  0.31602940  0.11331872     0.27700
C258        C  0.00497599  0.29607380  0.12148019    -0.24900
N259        N  0.07913118  0.33495269  0.13183590    -0.82300
H260        H  0.06683330  0.36862056  0.11629005     0.13500
C261        C  0.02163594  0.36377027  0.10275149     0.02800
N262        N  0.47551555  0.30974884  0.10681878    -0.80800
H263        H  0.98772594  0.27584866  0.12310301     0.18300
C264        C  0.02289503  0.36444961  0.08566224    -0.25700
C265        C  0.02180189  0.38506441  0.07675856     0.34600
C266        C  0.01825783  0.40486460  0.08518395    -0.19700
C267        C  0.51722901  0.40408031  0.10241197    -0.24900
C268        C  0.51915310  0.38389001  0.11127109     0.27700
H269        H  0.02542304  0.34914804  0.07928545     0.13500
N270        N  0.02513734  0.38629818  0.05930055    -0.82200
H271        H  0.51461707  0.41906616  0.10906433     0.18300
N272        N  0.51881206  0.38380415  0.12886694    -0.80800
H273        H  0.02727130  0.37009294  0.05508924     0.34000
H274        H  0.04337423  0.40400313  0.05659714     0.38500
H275        H  0.51726426  0.40023140  0.13329976     0.33900
H276        H  0.50128471  0.36621377  0.13266473     0.30600
H277        H  0.46113149  0.28942386  0.10904999     0.33900
H278        H  0.46901037  0.32141321  0.11319911     0.30600
H279        H  0.09246720  0.34118693  0.12188725     0.38500
H280        H  0.08585935  0.35138744  0.13985229     0.34000
C281        C  0.43395486  0.48394539  0.53806450    -0.19800
C282        C  0.43907197  0.00104075  0.52434340     0.36400
C283        C  0.41711596  0.00083657  0.51612937    -0.25700
C284        C  0.39026640  0.48421007  0.52144053     0.02900
C285        C  0.38511137  0.46732939  0.53517408     0.27700
C286        C  0.40698070  0.46730959  0.54331319    -0.24900
N287        N  0.46648667  0.01909143  0.51906471    -0.82300
H288        H  0.42092265  0.01393790  0.50563503     0.13500
C289        C  0.36778088  0.48525720  0.51277302     0.02800
N290        N  0.35770318  0.45051220  0.54088500    -0.80800
H291        H  0.40291783  0.45417254  0.55380982     0.18300
C292        C  0.34896882  0.46276304  0.50363885    -0.25700
C293        C  0.32751075  0.46322940  0.49523157     0.36400
C294        C  0.32500847  0.48668154  0.49597165    -0.19700
C295        C  0.34360559  0.00900576  0.50525262    -0.24900
C296        C  0.36500281  0.00853293  0.51368140     0.27700
H297        H  0.35114505  0.44489173  0.50304147     0.13500
N298        N  0.30832146  0.44010308  0.48592049    -0.82200
H299        H  0.34150884  0.02692740  0.50577536     0.18300
N300        N  0.38392616  0.03154153  0.52318866    -0.80800
H301        H  0.31314290  0.42459995  0.48650132     0.34000
H302        H  0.28924956  0.43256919  0.49139846     0.38500
H303        H  0.37916025  0.04707641  0.52250539     0.33900
H304        H  0.38159279  0.02543818  0.53543578     0.30600
H305        H  0.35734883  0.43920684  0.55108469     0.33900
H306        H  0.35060015  0.46335103  0.54483474     0.30600
H307        H  0.47634491  0.03321858  0.52840943     0.38500
H308        H  0.46665006  0.03013209  0.50877254     0.34000
C309        C  0.12983014  0.48628842  0.54178238    -0.19800
C310        C  0.14372617  0.47345948  0.54829765     0.36400
C311        C  0.16493753  0.47364191  0.53928314    -0.25700
C312        C  0.17218485  0.48589660  0.52384106     0.02900
C313        C  0.15810022  0.49817572  0.51713945     0.27700
C314        C  0.13704857  0.49823295  0.52615823    -0.24900
N315        N  0.13589730  0.45971941  0.56379914    -0.82300
H316        H  0.17577937  0.46401442  0.54423714     0.13500
C317        C  0.19480437  0.48597949  0.51483143     0.02800
N318        N  0.16518672  0.51038985  0.50116859    -0.80800
H319        H  0.12651650  0.50804398  0.52103816     0.18300
C320        C  0.18914659  0.46529218  0.50354857    -0.25700
C321        C  0.21002576  0.46495218  0.49457806     0.36400
C322        C  0.23719541  0.48635416  0.49666264    -0.19700
C323        C  0.24278178  0.00672847  0.50823042    -0.24900
C324        C  0.22184253  0.00672380  0.51736750     0.27700
H325        H  0.16833622  0.44911825  0.50183035     0.13500
N326        N  0.20293839  0.44212769  0.48405449    -0.82200
H327        H  0.26357098  0.02297536  0.50990580     0.18300
N328        N  0.22778270  0.02797207  0.52895742    -0.80800
H329        H  0.19074093  0.44266936  0.47461720     0.34000
H330        H  0.22003530  0.44294862  0.47873122     0.38500
H331        H  0.24863430  0.04199160  0.52912774     0.33900
H332        H  0.22286210  0.01915238  0.54059034     0.30600
H333        H  0.15263337  0.51823709  0.49787743     0.33900
H334        H  0.18500576  0.52687760  0.50180588     0.30600
H335        H  0.11613352  0.44331843  0.56253149     0.38500
H336        H  0.14826522  0.45153243  0.56682089     0.34000
C337        C  0.32992934  0.99813604  0.46062746    -0.19800
C338        C  0.32980874  0.47808029  0.45033020     0.36400
C339        C  0.35397340  0.48341598  0.44259422    -0.25700
C340        C  0.37801550  0.00828114  0.44474274     0.02900
C341        C  0.37794995  0.02857658  0.45455802     0.27700
C342        C  0.35384658  0.02323918  0.46246836    -0.24900
N343        N  0.30579233  0.45227049  0.44740980    -0.82300
H344        H  0.35404691  0.46798164  0.43485590     0.13500
C345        C  0.40319999  0.01246119  0.43682739     0.02800
N346        N  0.40238006  0.05434469  0.45654212    -0.80800
H347        H  0.35368766  0.03860173  0.47023295     0.18300
C348        C  0.41474860  0.03144587  0.42414669    -0.25700
C349        C  0.43809708  0.03510919  0.41594032     0.36400
C350        C  0.44982408  0.01915755  0.42044206    -0.19700
C351        C  0.43853446  0.00065203  0.43345630    -0.24900
C352        C  0.41537228  0.49721973  0.44173643     0.27700
H353        H  0.40537491  0.04328682  0.42060087     0.13500
N354        N  0.45008811  0.05516731  0.40323552    -0.82200
H355        H  0.44747324  0.48842292  0.43698778     0.18300
N356        N  0.40401703  0.47824908  0.45505731    -0.80800
H357        H  0.43890790  0.06504629  0.40141860     0.34000
H358        H  0.46938850  0.06992209  0.40726521     0.38500
H359        H  0.41530371  0.46854029  0.45710323     0.33900
H360        H  0.40581229  0.48932422  0.46564932     0.30600
H361        H  0.39878047  0.06711606  0.46403282     0.33900
H362        H  0.41658339  0.05087812  0.46265671     0.30600
H363        H  0.28905014  0.45022675  0.45389536     0.38500
H364        H  0.30957441  0.43714046  0.45173714     0.34000
C365        C  0.24108183  0.99492948  0.46038413    -0.19800
C366        C  0.23518242  0.51598105  0.46276529     0.36400
C367        C  0.21359659  0.51565730  0.45416055    -0.25700
C368        C  0.19807747  0.99482109  0.44301548     0.02900
C369        C  0.20461108  0.97429205  0.44012549     0.27700
C370        C  0.22628694  0.97472673  0.44873427    -0.24900
N371        N  0.25138110  0.53794528  0.47364661    -0.82300
H372        H  0.20893797  0.53175356  0.45615017     0.13500
C373        C  0.17495687  0.99469911  0.43450619     0.02800
N374        N  0.18888491  0.95286483  0.42870692    -0.80800
H375        H  0.23114214  0.95876229  0.44676953     0.18300
C376        C  0.17614596  0.99862331  0.41754927    -0.25700
C377        C  0.15488841  0.99929997  0.40907996     0.36400
C378        C  0.13152857  0.99520346  0.41777132    -0.19700
C379        C  0.13052445  0.49125107  0.43481336    -0.24900
C380        C  0.15197867  0.49093931  0.44325255     0.27700
H381        H  0.19406508  0.00176913  0.41096584     0.13500
N382        N  0.15745265  0.00494565  0.39182855    -0.82200
H383        H  0.11275210  0.48796981  0.44159378     0.18300
N384        N  0.15049458  0.48661260  0.46065219    -0.80800
H385        H  0.17566765  0.00705660  0.38733763     0.34000
H386        H  0.15855241  0.02371203  0.39017231     0.38500
H387        H  0.13230406  0.48432711  0.46530283     0.33900
H388        H  0.15011337  0.46827788  0.46278723     0.30600
H389        H  0.19640825  0.93943711  0.42796754     0.33900
H390        H  0.16910846  0.94173916  0.43332770     0.30600
H391        H  0.23844136  0.53894897  0.48235942     0.38500
H392        H  0.25997028  0.55596521  0.46688096     0.34000
C393        C  0.41077750  0.38843605  0.75193500    -0.19800
C394        C  0.40128338  0.39255296  0.76705323     0.36400
C395        C  0.37916006  0.37055605  0.77481640    -0.25700
C396        C  0.36607146  0.34475844  0.76765790     0.02900
C397        C  0.37498560  0.34063643  0.75243924     0.27700
C398        C  0.39719786  0.36256987  0.74466975    -0.24900
N399        N  0.41372833  0.41909115  0.77432126    -0.82300
H400        H  0.37194752  0.37350513  0.78648118     0.13500
C401        C  0.34329881  0.32214996  0.77646051     0.02800
N402        N  0.36151614  0.31418591  0.74501944    -0.80800
H403        H  0.40433899  0.35927824  0.73308647     0.18300
C404        C  0.31650675  0.31541268  0.77278529    -0.25700
C405        C  0.29458197  0.29510519  0.78163231     0.36400
C406        C  0.29947299  0.28097901  0.79417129    -0.19700
C407        C  0.32632437  0.28719963  0.79741047    -0.24900
C408        C  0.34833650  0.30801382  0.78887948     0.27700
H409        H  0.31267580  0.32644836  0.76330104     0.13500
N410        N  0.26748587  0.28959439  0.77829493    -0.82200
H411        H  0.33013949  0.27607067  0.80682573     0.18300
N412        N  0.37581638  0.31528948  0.79297680    -0.80800
H413        H  0.26696615  0.30756883  0.77995064     0.34000
H414        H  0.26314748  0.28393963  0.76601107     0.38500
H415        H  0.37606353  0.30337506  0.80266804     0.33900
H416        H  0.38415771  0.31082704  0.78287036     0.30600
H417        H  0.37042872  0.31459461  0.73375993     0.33900
H418        H  0.36461120  0.30111055  0.75258530     0.30600
H419        H  0.41024057  0.43161567  0.76649137     0.38500
H420        H  0.40438507  0.41856233  0.78543839     0.34000
C421        C  0.21168081  0.19430252  0.79723592    -0.19800
C422        C  0.18439129  0.18879596  0.79692862     0.36400
C423        C  0.16456713  0.16546327  0.78891752    -0.25700
C424        C  0.17138907  0.14776437  0.78108624     0.02900
C425        C  0.19843652  0.15311712  0.78140913     0.27700
C426        C  0.21838468  0.17649133  0.78936367    -0.24900
N427        N  0.17619377  0.20667170  0.80409897    -0.82300
H428        H  0.14373037  0.16132896  0.78855150     0.13500
C429        C  0.15013285  0.12393128  0.77223599     0.02800
N430        N  0.20542058  0.13468287  0.77372369    -0.80800
H431        H  0.23921744  0.18061189  0.78974695     0.18300
C432        C  0.14894200  0.12486041  0.75516639    -0.25700
C433        C  0.12907640  0.10265011  0.74623129     0.36400
C434        C  0.11062895  0.07848317  0.75458525    -0.19700
C435        C  0.11186542  0.07793696  0.77179197    -0.24900
C436        C  0.13129781  0.10048060  0.78068729     0.27700
H437        H  0.16333952  0.14324054  0.74883085     0.13500
N438        N  0.12725241  0.10499404  0.72882564    -0.82200
H439        H  0.09791830  0.05972344  0.77838708     0.18300
N440        N  0.13207721  0.09969631  0.79825886    -0.80800
H441        H  0.14249399  0.12394557  0.72466670     0.34000
H442        H  0.10870664  0.10407277  0.72637042     0.38500
H443        H  0.11662702  0.08105798  0.80265950     0.33900
H444        H  0.15052000  0.10107983  0.80164464     0.30600
H445        H  0.22622104  0.14161741  0.77502201     0.33900
H446        H  0.19522653  0.11620825  0.77999699     0.30600
H447        H  0.19275016  0.22438929  0.80857550     0.38500
H448        H  0.16355834  0.19653242  0.81403560     0.34000
C449        C  0.29995161  0.28518716  0.83050065    -0.19800
C450        C  0.30549567  0.31207832  0.82849546     0.36400
C451        C  0.32779081  0.33318682  0.83657773    -0.25700
C452        C  0.34436846  0.32770621  0.84676269     0.02900
C453        C  0.33881131  0.30083630  0.84891278     0.27700
C454        C  0.31648339  0.27972612  0.84078911    -0.24900
N455        N  0.28827008  0.31789972  0.81848288    -0.82300
H456        H  0.33197441  0.35387571  0.83509805     0.13500
C457        C  0.36679449  0.35020889  0.85570938     0.02800
N458        N  0.35585944  0.29520817  0.85933907    -0.80800
H459        H  0.31216122  0.25898979  0.84224352     0.18300
C460        C  0.36307537  0.35386447  0.87220479    -0.25700
C461        C  0.38344969  0.37556001  0.88114092     0.36400
C462        C  0.40855926  0.39342057  0.87347682    -0.19700
C463        C  0.41207064  0.38954089  0.85684214    -0.24900
C464        C  0.39132764  0.36815885  0.84785760     0.27700
H465        H  0.34385988  0.34005526  0.87799738     0.13500
N466        N  0.37823489  0.37990113  0.89774078    -0.82200
H467        H  0.43113208  0.40304188  0.85083318     0.18300
N468        N  0.39494679  0.36458938  0.83081202    -0.80800
H469        H  0.35893823  0.36474033  0.90149508     0.34000
H470        H  0.37799500  0.39816903  0.89804397     0.38500
H471        H  0.41410059  0.37967674  0.82681187     0.33900
H472        H  0.39453352  0.34608068  0.82957150     0.30600
H473        H  0.34887734  0.27436212  0.85967395     0.33900
H474        H  0.37524437  0.30438966  0.85409300     0.30600
H475        H  0.30031454  0.33165621  0.80942568     0.38500
H476        H  0.28039612  0.32743564  0.82578503     0.34000
C477        C  0.09666958  0.09461945  0.87487395    -0.19800
C478        C  0.09731289  0.09949472  0.85782237     0.36400
C479        C  0.12149002  0.11956202  0.85057310    -0.25700
C480        C  0.14473258  0.13555232  0.85998025     0.02900
C481        C  0.14410957  0.13141410  0.87698170     0.27700
C482        C  0.12015796  0.11090553  0.88425148    -0.24900
N483        N  0.07333799  0.08472379  0.84794073    -0.82300
H484        H  0.12208457  0.12326532  0.83752216     0.13500
C485        C  0.16926037  0.15707521  0.85174751     0.02800
N486        N  0.16784120  0.14796037  0.88674247    -0.80800
H487        H  0.12008318  0.10743867  0.89727860     0.18300
C488        C  0.17697196  0.18432635  0.85441728    -0.25700
C489        C  0.19830089  0.20518260  0.84545030     0.36400
C490        C  0.21245089  0.19852828  0.83379190    -0.19700
C491        C  0.20562784  0.17129837  0.83189070    -0.24900
C492        C  0.18385445  0.15045973  0.84052992     0.27700
H493        H  0.16563145  0.18920777  0.86309784     0.13500
N494        N  0.20523342  0.23295794  0.84790169    -0.82200
H495        H  0.21713239  0.16624410  0.82346531     0.18300
N496        N  0.17623292  0.12256555  0.83783775    -0.80800
H497        H  0.19305120  0.23432519  0.85701084     0.34000
H498        H  0.20084561  0.23984304  0.83708401     0.38500
H499        H  0.18873561  0.12110757  0.82898990     0.33900
H500        H  0.17963513  0.11508248  0.84874952     0.30600
H501        H  0.16401012  0.14247246  0.89907839     0.33900
H502        H  0.18312440  0.14393962  0.88304889     0.30600
H503        H  0.05907513  0.09003098  0.85187214     0.38500
H504        H  0.07743486  0.09060296  0.83567056     0.34000
N505        N  0.03410828  0.53388852  0.88838594    -0.27200
N506        N  0.04252157  0.54724874  0.90233154    -0.35100
C507        C  0.06548778  0.57093660  0.89963242     0.01100
C508        C  0.07200264  0.57270705  0.88313357     0.07200
C509        C  0.05158339  0.54861128  0.87646447    -0.05900
H510        H  0.07687033  0.58550390  0.90911349     0.07800
H511        H  0.05000158  0.54150615  0.86404109     0.09000
Cu512      Cu  0.02412023  0.53115257  0.92462304     0.44200
Cu513      Cu  0.00027971  0.99541579  0.88638796     0.42000
Cu514      Cu  0.47405039  0.95951164  0.92469215     0.43900
N515        N  0.00687729  0.50868056  0.94564797    -0.34600
N516        N  0.48964266  0.98223901  0.94573367    -0.28800
C517        C  0.48411360  0.97352578  0.96131217    -0.04900
C518        C  0.49837739  0.49564227  0.97145717     0.07300
C519        C  0.01250168  0.51758274  0.96115878     0.01100
H520        H  0.47065870  0.95269572  0.96495047     0.08700
H521        H  0.02653753  0.53833595  0.96465984     0.07800
N522        N  0.45834121  0.94313691  0.90201018    -0.36000
N523        N  0.46720922  0.95641508  0.88805529    -0.28200
C524        C  0.45121351  0.94072438  0.87583461    -0.03500
C525        C  0.43117025  0.91638164  0.88241382     0.05200
C526        C  0.43668351  0.91862124  0.89905613     0.03300
H527        H  0.45364699  0.94692476  0.86314304     0.08400
H528        H  0.42587431  0.90371346  0.90847080     0.07200
N529        N  0.47561875  0.94635337  0.73884243    -0.27200
N530        N  0.46412558  0.93649021  0.72449869    -0.35100
C531        C  0.43938726  0.91467599  0.72693903     0.01100
C532        C  0.43492056  0.91067193  0.74363252     0.07200
C533        C  0.45846114  0.93110017  0.75077848    -0.05900
H534        H  0.42568343  0.90258179  0.71724534     0.07800
H535        H  0.46313987  0.93432084  0.76369691     0.09000
Cu536      Cu  0.48301345  0.95232819  0.70221607     0.44200
Cu537      Cu  0.01424077  0.97996873  0.74155965     0.42000
Cu538      Cu  0.05444697  0.50263722  0.70454176     0.43900
N539        N  0.00770682  0.96894418  0.68182557    -0.34600
N540        N  0.03420230  0.98597074  0.68276625    -0.28800
C541        C  0.04453535  0.99225606  0.66755655    -0.04900
C542        C  0.02346224  0.97888683  0.65652977     0.07300
C543        C  0.00038491  0.96434391  0.66596514     0.01100
H544        H  0.06564400  0.50631250  0.66474256     0.08700
H545        H  0.47983596  0.95124742  0.66163963     0.07800
N546        N  0.06735893  0.52234596  0.72684239    -0.36000
N547        N  0.05245440  0.51454526  0.74026939    -0.28200
C548        C  0.06554508  0.53303623  0.75207678    -0.03500
C549        C  0.08991245  0.55367651  0.74581161     0.05200
C550        C  0.09036599  0.54587231  0.72976835     0.03300
H551        H  0.05746265  0.53184247  0.76421394     0.08400
H552        H  0.10608636  0.55635536  0.72073074     0.07200
N553        N  0.00988643  0.51787516  0.40569438    -0.27200
N554        N  0.00059568  0.52208503  0.39180740    -0.35100
C555        C  0.47840033  0.52410892  0.39491150     0.01100
C556        C  0.47349447  0.52107674  0.41159747     0.07200
C557        C  0.49384213  0.51705417  0.41801186    -0.05900
H558        H  0.46595473  0.52612589  0.38558421     0.07800
H559        H  0.99640025  0.51307712  0.43065075     0.09000
Cu560      Cu  0.01650906  0.52142672  0.36916843     0.44200
Cu561      Cu  0.04225964  0.51076348  0.40705102     0.42000
Cu562      Cu  0.05951497  0.49101701  0.36885807     0.43900
N563        N  0.03143293  0.51351872  0.34806925    -0.34600
N564        N  0.04556800  0.50075213  0.34787518    -0.28800
C565        C  0.05099435  0.49769187  0.33226050    -0.04900
C566        C  0.04005206  0.50944310  0.32222926     0.07300
C567        C  0.02787230  0.51932784  0.33262719     0.01100
H568        H  0.06274325  0.48836950  0.32853479     0.08700
H569        H  0.01692643  0.52967352  0.32923215     0.07800
N570        N  0.07830149  0.49277706  0.39097231    -0.36000
N571        N  0.07277723  0.50105922  0.40478050    -0.28200
C572        C  0.09042969  0.50273782  0.41635465    -0.03500
C573        C  0.10813935  0.49530375  0.40951857     0.05200
C574        C  0.09949887  0.48879484  0.39341402     0.03300
H575        H  0.09081214  0.50968665  0.42871663     0.08400
H576        H  0.10801136  0.48193639  0.38400050     0.07200
N577        N  0.06940111  0.98773574  0.55612209    -0.27200
N578        N  0.08103362  0.98864571  0.57032180    -0.35100
C579        C  0.10433362  0.98841872  0.56756955     0.01100
C580        C  0.10747477  0.98713883  0.55079854     0.07200
C581        C  0.08496569  0.98694793  0.54399525    -0.05900
H582        H  0.11798731  0.98930912  0.57711916     0.07800
H583        H  0.07992056  0.98575271  0.53113870     0.09000
Cu584      Cu  0.06389995  0.98894759  0.59276294     0.44200
Cu585      Cu  0.03237518  0.98660969  0.55364781     0.42000
Cu586      Cu  0.49508219  0.97846006  0.59075726     0.43900
N587        N  0.04040815  0.98509553  0.61320337    -0.34600
N588        N  0.01493962  0.97990792  0.61242150    -0.28800
C589        C  0.00494877  0.97672693  0.62768815    -0.04900
C590        C  0.02520397  0.98045975  0.63858217     0.07300
C591        C  0.04743959  0.98587508  0.62901674     0.01100
H592        H  0.48458021  0.97242239  0.63063074     0.08700
H593        H  0.06706869  0.98945461  0.63321649     0.07800
N594        N  0.48083159  0.98095906  0.56777218    -0.36000
N595        N  0.49466553  0.98436421  0.55414216    -0.28200
C596        C  0.48034824  0.98596059  0.54144719    -0.03500
C597        C  0.45630386  0.98351009  0.54737529     0.05200
C598        C  0.45732651  0.98021059  0.56412302     0.03300
H599        H  0.48686580  0.98835459  0.52882976     0.08400
H600        H  0.44227014  0.97788808  0.57306442     0.07200
N601        N  0.02111230  0.54007812  0.07225566    -0.27200
N602        N  0.02021917  0.55162885  0.05840640    -0.35100
C603        C  0.02156470  0.57540488  0.06176066     0.01100
C604        C  0.02310834  0.57887242  0.07856350     0.07200
C605        C  0.02286038  0.55609611  0.08482872    -0.05900
H606        H  0.02097089  0.58893727  0.05264882     0.07800
H607        H  0.02419224  0.55159782  0.09754982     0.09000
Cu608      Cu  0.01573497  0.53375042  0.03574445     0.44200
Cu609      Cu  0.01965804  0.50299651  0.07327553     0.42000
Cu610      Cu  0.99878436  0.96309023  0.03607804     0.43900
N611        N  0.50669281  0.51000495  0.01499354    -0.34600
N612        N  0.49910153  0.98390077  0.01514199    -0.28800
C613        C  0.49423701  0.97452003  0.99968683    -0.04900
C614        C  0.49935961  0.99586601  0.98938621     0.07300
C615        C  0.50725088  0.51802959  0.99946244     0.01100
H616        H  0.48847841  0.95399211  0.99618210     0.08700
H617        H  0.51305618  0.53851621  0.99579730     0.07800
N618        N  0.00732686  0.94998486  0.05782654    -0.36000
N619        N  0.01592979  0.96500198  0.07117955    -0.28200
C620        C  0.02124588  0.95146056  0.08274599    -0.03500
C621        C  0.01572498  0.92655604  0.07644901     0.05200
C622        C  0.00668833  0.92635248  0.06059840     0.03300
H623        H  0.02879678  0.95938603  0.09483256     0.08400
H624        H  0.99976948  0.91022679  0.05168608     0.07200
N625        N  0.05574415  0.98653718  0.22030246    -0.27200
N626        N  0.05081884  0.97222296  0.23386483    -0.35100
C627        C  0.04842723  0.94810734  0.23026529     0.01100
C628        C  0.05212280  0.94698883  0.21355258     0.07200
C629        C  0.05705882  0.97204951  0.20770217    -0.05900
H630        H  0.04369471  0.93234196  0.23921864     0.07800
H631        H  0.06127365  0.97948659  0.19527569     0.09000
Cu632      Cu  0.04734921  0.98588029  0.25666094     0.44200
Cu633      Cu  0.05768633  0.52389042  0.21960323     0.42000
Cu634      Cu  0.04312340  0.54683251  0.25825045     0.43900
N635        N  0.04449714  0.50312181  0.27827025    -0.34600
N636        N  0.04179584  0.52489823  0.27889017    -0.28800
C637        C  0.03956238  0.53039523  0.29462940    -0.04900
C638        C  0.04134126  0.51135046  0.30431264     0.07300
C639        C  0.04456769  0.49444492  0.29357195     0.01100
H640        H  0.03738590  0.54730764  0.29872180     0.08700
H641        H  0.04643732  0.97690959  0.29661390     0.07800
N642        N  0.04893251  0.56659591  0.23598343    -0.36000
N643        N  0.05458686  0.55852054  0.22210993    -0.28200
C644        C  0.05747885  0.57605033  0.21016603    -0.03500
C645        C  0.05368602  0.59629467  0.21683385     0.05200
C646        C  0.04809803  0.58948968  0.23320525     0.03300
H647        H  0.06145953  0.57380196  0.19749745     0.08400
H648        H  0.04393680  0.60048905  0.24247753     0.07200
C649        C  0.03295668  0.78146219  0.13756264     0.02400
C650        C  0.03840216  0.78455246  0.15456953     0.02300
C651        C  0.04170577  0.76492550  0.16306193    -0.18200
C652        C  0.03993339  0.74243177  0.15494333     0.02400
C653        C  0.03494289  0.73954603  0.13790338     0.02300
C654        C  0.03097826  0.75882292  0.12944807    -0.18200
H655        H  0.02717021  0.75663725  0.11637911     0.04400
H656        H  0.04528419  0.76695703  0.17615595     0.04400
C657        C  0.23365344  0.71781037  0.80606478     0.02400
C658        C  0.23420593  0.71974233  0.82337002     0.02300
C659        C  0.25618194  0.74202362  0.83092591    -0.18200
C660        C  0.27729568  0.76241456  0.82169495     0.02400
C661        C  0.27686630  0.76043869  0.80442889     0.02300
C662        C  0.25500836  0.73805723  0.79684980    -0.18200
H663        H  0.25475631  0.73614640  0.78364367     0.04400
H664        H  0.25702563  0.74345041  0.84416501     0.04400
C665        C  0.26030032  0.98844606  0.48699524     0.02400
C666        C  0.26252819  0.99336232  0.46991077     0.02300
C667        C  0.28515429  0.49578433  0.46151211    -0.18200
C668        C  0.30561592  0.99358838  0.46978667     0.02400
C669        C  0.30343978  0.98858587  0.48677565     0.02300
C670        C  0.28090413  0.98626248  0.49523398    -0.18200
H671        H  0.27934781  0.98265202  0.50832193     0.04400
H672        H  0.28703035  0.49973045  0.44845438     0.04400
C673        C  0.04264732  0.72179806  0.16459686    -0.19800
C674        C  0.02064019  0.69511337  0.16613148     0.36400
C675        C  0.02429347  0.67576933  0.17470112    -0.25700
C676        C  0.04926023  0.68276034  0.18214430     0.02900
C677        C  0.07118964  0.70958126  0.18084673     0.27700
C678        C  0.06760808  0.72891234  0.17210841    -0.24900
N679        N  0.49463391  0.68789305  0.15910445    -0.82300
H680        H  0.50750884  0.65514237  0.17574253     0.13500
C681        C  0.05159582  0.66177467  0.19165070     0.02800
N682        N  0.09685325  0.71705944  0.18847240    -0.80800
H683        H  0.08438745  0.74952245  0.17095041     0.18300
C684        C  0.07057007  0.65407622  0.18697532    -0.25700
C685        C  0.07214640  0.63317086  0.19524402     0.36400
C686        C  0.05400318  0.61943834  0.20825609    -0.19700
C687        C  0.03555760  0.62771843  0.21315678    -0.24900
C688        C  0.03424616  0.64880508  0.20503783     0.27700
H689        H  0.08398499  0.66424802  0.17674501     0.13500
N690        N  0.09229519  0.62613421  0.19061719    -0.82200
H691        H  0.02172923  0.61736463  0.22318126     0.18300
N692        N  0.01526953  0.65707326  0.21025911    -0.80800
H693        H  0.10394685  0.63813470  0.18082334     0.34000
H694        H  0.10562139  0.63072374  0.20050439     0.38500
H695        H  0.50384488  0.64539784  0.22021020     0.33900
H696        H  0.52654005  0.67709396  0.21440810     0.30600
H697        H  0.11087546  0.73750678  0.18626716     0.33900
H698        H  0.09371540  0.71501117  0.20111747     0.30600
H699        H  0.48726699  0.69912314  0.16513728     0.38500
H700        H  0.48063834  0.66741761  0.16123961     0.34000
C701        C  0.05034169  0.92346117  0.20438327    -0.19800
C702        C  0.04462117  0.91953374  0.18738104     0.36400
C703        C  0.04298438  0.89669656  0.17963074    -0.25700
C704        C  0.04589702  0.87719128  0.18850973     0.02900
C705        C  0.05099570  0.88065160  0.20543957     0.27700
C706        C  0.05364977  0.90390765  0.21311423    -0.24900
N707        N  0.03973403  0.93812892  0.17805126    -0.82300
H708        H  0.03900222  0.89382976  0.16659755     0.13500
C709        C  0.04352947  0.85316288  0.17993823     0.02800
N710        N  0.05309545  0.86031640  0.21480304    -0.80800
H711        H  0.05821577  0.90656622  0.22605983     0.18300
C712        C  0.06555134  0.84842425  0.18033258    -0.25700
C713        C  0.06418077  0.82592922  0.17235349     0.36400
C714        C  0.04031092  0.80795413  0.16372890    -0.19700
C715        C  0.01813823  0.81248736  0.16354845    -0.24900
C716        C  0.01951352  0.83496467  0.17154396     0.27700
H717        H  0.08396218  0.86251030  0.18678593     0.13500
N718        N  0.08694777  0.82136329  0.17288798    -0.82200
H719        H  0.49966075  0.79834126  0.15718163     0.18300
N720        N  0.49659620  0.83928430  0.17130822    -0.80800
H721        H  0.10286834  0.83645584  0.17975638     0.34000
H722        H  0.09425894  0.82298576  0.16097655     0.38500
H723        H  0.48062676  0.82418401  0.16446652     0.33900
H724        H  0.48956007  0.83737418  0.18332105     0.30600
H725        H  0.05690462  0.86591203  0.22712159     0.33900
H726        H  0.03416230  0.84252355  0.21434449     0.30600
H727        H  0.02167086  0.93659029  0.18236427     0.38500
H728        H  0.03643794  0.93252442  0.16571595     0.34000
C729        C  0.02517520  0.60231147  0.08765586    -0.19800
C730        C  0.01109367  0.59897906  0.10249516     0.36400
C731        C  0.01365456  0.62196362  0.11056030    -0.25700
C732        C  0.02973054  0.64802072  0.10400078     0.02900
C733        C  0.04373341  0.65138354  0.08920229     0.27700
C734        C  0.04129287  0.62846783  0.08116232    -0.24900
N735        N  0.49368811  0.57232196  0.10907496    -0.82300
H736        H  0.50282166  0.61959386  0.12190467     0.13500
C737        C  0.03101258  0.67158979  0.11247489     0.02800
N738        N  0.06014490  0.67803719  0.08235564    -0.80800
H739        H  0.05212288  0.63104085  0.06979679     0.18300
C740        C  0.05553392  0.69100601  0.11965711    -0.25700
C741        C  0.05745468  0.71372530  0.12768504     0.36400
C742        C  0.03426546  0.71676838  0.12868514    -0.19700
C743        C  0.50990568  0.69760289  0.12120511    -0.24900
C744        C  0.50803354  0.67495374  0.11311563     0.27700
H745        H  0.07316862  0.68837737  0.11896950     0.13500
N746        N  0.08280279  0.73375217  0.13479530    -0.82200
H747        H  0.49221482  0.70012922  0.12194573     0.18300
N748        N  0.48295678  0.65533392  0.10553111    -0.80800
H749        H  0.09779930  0.72839958  0.13311462     0.34000
H750        H  0.08924132  0.75197891  0.12849977     0.38500
H751        H  0.46795558  0.66068508  0.10719450     0.33900
H752        H  0.48639307  0.65594190  0.09293329     0.30600
H753        H  0.06922507  0.67702479  0.07145914     0.33900
H754        H  0.04717349  0.68550024  0.07929712     0.30600
H755        H  0.47765870  0.56191244  0.10082110     0.38500
H756        H  0.48495213  0.57349323  0.12007528     0.34000
C757        C  0.03036717  0.80226521  0.12798433    -0.19800
C758        C  0.05282108  0.82853238  0.12590625     0.36400
C759        C  0.04948022  0.84842235  0.11781861    -0.25700
C760        C  0.02408322  0.84239182  0.11156522     0.02900
C761        C  0.00158883  0.81602776  0.11331861     0.27700
C762        C  0.00497614  0.79607245  0.12148011    -0.24900
N763        N  0.07913077  0.83495310  0.13183710    -0.82300
H764        H  0.06683202  0.86862039  0.11629142     0.13500
C765        C  0.02163479  0.86376884  0.10275203     0.02800
N766        N  0.47551546  0.80974644  0.10681803    -0.80800
H767        H  0.98772648  0.77584696  0.12310252     0.18300
C768        C  0.02289457  0.86444856  0.08566282    -0.25700
C769        C  0.02180201  0.88506366  0.07675916     0.34600
C770        C  0.01825778  0.90486375  0.08518455    -0.19700
C771        C  0.51722792  0.90407888  0.10241255    -0.24900
C772        C  0.51915155  0.88388830  0.11127165     0.27700
H773        H  0.02542291  0.84914719  0.07928603     0.13500
N774        N  0.02513839  0.88629794  0.05930122    -0.82200
H775        H  0.51461566  0.91906454  0.10906490     0.18300
N776        N  0.51880965  0.88380190  0.12886750    -0.80800
H777        H  0.02727247  0.87009275  0.05508989     0.34000
H778        H  0.04337551  0.90400285  0.05659818     0.38500
H779        H  0.51726152  0.90022893  0.13330036     0.33900
H780        H  0.50128218  0.86621132  0.13266495     0.30600
H781        H  0.46113186  0.78942118  0.10904880     0.33900
H782        H  0.46900915  0.82140996  0.11319829     0.30600
H783        H  0.09246719  0.84118795  0.12188863     0.38500
H784        H  0.08585819  0.85138761  0.13985361     0.34000
C785        C  0.43395498  0.98394377  0.53806444    -0.19800
C786        C  0.43907153  0.50104038  0.52434247     0.36400
C787        C  0.41711542  0.50083602  0.51612844    -0.25700
C788        C  0.39026666  0.98420885  0.52144051     0.02900
C789        C  0.38511130  0.96732606  0.53517306     0.27700
C790        C  0.40698058  0.96730608  0.54331215    -0.24900
N791        N  0.46648599  0.51908921  0.51906267    -0.82300
H792        H  0.42092184  0.51393576  0.50563332     0.13500
C793        C  0.36778124  0.98525646  0.51277315     0.02800
N794        N  0.35770282  0.95050695  0.54088299    -0.80800
H795        H  0.40291753  0.95416755  0.55380805     0.18300
C796        C  0.34897106  0.96276396  0.50363710    -0.25700
C797        C  0.32751331  0.96323092  0.49522980     0.36400
C798        C  0.32500936  0.98668200  0.49597181    -0.19700
C799        C  0.34360665  0.50900703  0.50525051    -0.24900
C800        C  0.36500410  0.50853478  0.51367933     0.27700
H801        H  0.35114851  0.94489347  0.50303825     0.13500
N802        N  0.30832593  0.94010621  0.48591683    -0.82200
H803        H  0.34151114  0.52692949  0.50577174     0.18300
N804        N  0.38392927  0.53154505  0.52318476    -0.80800
H805        H  0.31314840  0.92460371  0.48649639     0.34000
H806        H  0.28925329  0.93257013  0.49139418     0.38500
H807        H  0.37916439  0.54708054  0.52250019     0.33900
H808        H  0.38159685  0.52544437  0.53543238     0.30600
H809        H  0.35734825  0.93920020  0.55108201     0.33900
H810        H  0.35059862  0.96334442  0.54483354     0.30600
H811        H  0.47634552  0.53321776  0.52840655     0.38500
H812        H  0.46664907  0.53012841  0.50876985     0.34000
C813        C  0.12983124  0.98628929  0.54178308    -0.19800
C814        C  0.14372804  0.97346133  0.54829867     0.36400
C815        C  0.16493997  0.97364455  0.53928439    -0.25700
C816        C  0.17218679  0.98589863  0.52384215     0.02900
C817        C  0.15810116  0.99817638  0.51714011     0.27700
C818        C  0.13704923  0.99823323  0.52615875    -0.24900
N819        N  0.13589932  0.95972133  0.56380018    -0.82300
H820        H  0.17578249  0.96401791  0.54423863     0.13500
C821        C  0.19480625  0.98598151  0.51483251     0.02800
N822        N  0.16518692  0.01038945  0.50116896    -0.80800
H823        H  0.12651658  0.00804348  0.52103841     0.18300
C824        C  0.18914827  0.96529398  0.50354978    -0.25700
C825        C  0.21002726  0.96495383  0.49457920     0.36400
C826        C  0.23719693  0.98635587  0.49666356    -0.19700
C827        C  0.24278005  0.50672652  0.50822961    -0.24900
C828        C  0.22184065  0.50672164  0.51736665     0.27700
H829        H  0.16833788  0.94911999  0.50183174     0.13500
N830        N  0.20293971  0.94212915  0.48405576    -0.82200
H831        H  0.26356924  0.52297332  0.50990520     0.18300
N832        N  0.22778068  0.52796950  0.52895684    -0.80800
H833        H  0.19074211  0.94267063  0.47461851     0.34000
H834        H  0.22003654  0.94294997  0.47873242     0.38500
H835        H  0.24863231  0.54198895  0.52912737     0.33900
H836        H  0.22285973  0.51914940  0.54058962     0.30600
H837        H  0.15263280  0.01823564  0.49787747     0.33900
H838        H  0.18500564  0.02687779  0.50180591     0.30600
H839        H  0.11613586  0.94331979  0.56253242     0.38500
H840        H  0.14826779  0.95153510  0.56682212     0.34000
C841        C  0.32992910  0.49813566  0.46062744    -0.19800
C842        C  0.32980801  0.97808182  0.45032864     0.36400
C843        C  0.35397250  0.98341754  0.44259238    -0.25700
C844        C  0.37801560  0.50828080  0.44474314     0.02900
C845        C  0.37794895  0.52857743  0.45455670     0.27700
C846        C  0.35384544  0.52323993  0.46246694    -0.24900
N847        N  0.30579090  0.95227304  0.44740710    -0.82300
H848        H  0.35404531  0.96798408  0.43485288     0.13500
C849        C  0.40320020  0.51246105  0.43682776     0.02800
N850        N  0.40237799  0.55434692  0.45653914    -0.80800
H851        H  0.35368573  0.53860334  0.47023030     0.18300
C852        C  0.41474828  0.53144527  0.42414677    -0.25700
C853        C  0.43809652  0.53510843  0.41594016     0.36400
C854        C  0.44982389  0.51915716  0.42044197    -0.19700
C855        C  0.43853477  0.50065204  0.43345644    -0.24900
C856        C  0.41537174  0.99721958  0.44173607     0.27700
H857        H  0.40537430  0.54328591  0.42060087     0.13500
N858        N  0.45008692  0.55516601  0.40323503    -0.82200
H859        H  0.44747268  0.98842268  0.43698762     0.18300
N860        N  0.40401590  0.97824849  0.45505668    -0.80800
H861        H  0.43890644  0.56504473  0.40141805     0.34000
H862        H  0.46938739  0.56992106  0.40726438     0.38500
H863        H  0.41530246  0.96853961  0.45710267     0.33900
H864        H  0.40581077  0.98932328  0.46564880     0.30600
H865        H  0.39877759  0.56711900  0.46402862     0.33900
H866        H  0.41658255  0.55088294  0.46265440     0.30600
H867        H  0.28904904  0.95022891  0.45389322     0.38500
H868        H  0.30957212  0.93714173  0.45173305     0.34000
C869        C  0.24108186  0.49492937  0.46038341    -0.19800
C870        C  0.23518139  0.01598045  0.46276619     0.36400
C871        C  0.21359519  0.01565602  0.45416150    -0.25700
C872        C  0.19807829  0.49482228  0.44301470     0.02900
C873        C  0.20461097  0.47429254  0.44012488     0.27700
C874        C  0.22628649  0.47472660  0.44873368    -0.24900
N875        N  0.25137943  0.03794472  0.47364761    -0.82300
H876        H  0.20893588  0.03175177  0.45615124     0.13500
C877        C  0.17495773  0.49470059  0.43450560     0.02800
N878        N  0.18888420  0.45286525  0.42870646    -0.80800
H879        H  0.23114102  0.45876165  0.44676908     0.18300
C880        C  0.17614642  0.49862443  0.41754866    -0.25700
C881        C  0.15488859  0.49930079  0.40907951     0.36400
C882        C  0.13152889  0.49520426  0.41777105    -0.19700
C883        C  0.13052365  0.99124973  0.43481359    -0.24900
C884        C  0.15197757  0.99093764  0.44325295     0.27700
H885        H  0.19406537  0.50177010  0.41096509     0.13500
N886        N  0.15745241  0.50494622  0.39182807    -0.82200
H887        H  0.11275114  0.98796836  0.44159387     0.18300
N888        N  0.15049293  0.98661044  0.46065255    -0.80800
H889        H  0.17566739  0.50705731  0.38733705     0.34000
H890        H  0.15855195  0.52371250  0.39017181     0.38500
H891        H  0.13230228  0.98432484  0.46530304     0.33900
H892        H  0.15011159  0.96827562  0.46278747     0.30600
H893        H  0.19640698  0.43943704  0.42796713     0.33900
H894        H  0.16910775  0.44174015  0.43332731     0.30600
H895        H  0.23843926  0.03894779  0.48236036     0.38500
H896        H  0.25996818  0.05596471  0.46688205     0.34000
C897        C  0.41077636  0.88843669  0.75193480    -0.19800
C898        C  0.40128212  0.89255393  0.76705289     0.36400
C899        C  0.37915862  0.87055725  0.77481605    -0.25700
C900        C  0.36607001  0.84475955  0.76765768     0.02900
C901        C  0.37498421  0.84063720  0.75243914     0.27700
C902        C  0.39719663  0.86257043  0.74466965    -0.24900
N903        N  0.41372719  0.91909222  0.77432080    -0.82300
H904        H  0.37194605  0.87350656  0.78648076     0.13500
C905        C  0.34329758  0.82215120  0.77646043     0.02800
N906        N  0.36151466  0.81418657  0.74501945    -0.80800
H907        H  0.40433781  0.85927853  0.73308646     0.18300
C908        C  0.31650543  0.81541367  0.77278533    -0.25700
C909        C  0.29458088  0.79510599  0.78163238     0.36400
C910        C  0.29947227  0.78097990  0.79417125    -0.19700
C911        C  0.32632377  0.78720085  0.79741034    -0.24900
C912        C  0.34833565  0.80801526  0.78887934     0.27700
H913        H  0.31267423  0.82644920  0.76330110     0.13500
N914        N  0.26748463  0.78959481  0.77829510    -0.82200
H915        H  0.33013919  0.77607196  0.80682550     0.18300
N916        N  0.37581567  0.81529124  0.79297650    -0.80800
H917        H  0.26696462  0.80756909  0.77995086     0.34000
H918        H  0.26314623  0.78394010  0.76601124     0.38500
H919        H  0.37606314  0.80337693  0.80266771     0.33900
H920        H  0.38415698  0.81082894  0.78286999     0.30600
H921        H  0.37042723  0.81459504  0.73375999     0.33900
H922        H  0.36460955  0.80111121  0.75258542     0.30600
H923        H  0.41023966  0.93161672  0.76649078     0.38500
H924        H  0.40438386  0.91856363  0.78543787     0.34000
C925        C  0.21168072  0.69430296  0.79723552    -0.19800
C926        C  0.18439121  0.68879634  0.79692785     0.36400
C927        C  0.16456734  0.66546361  0.78891663    -0.25700
C928        C  0.17138959  0.64776469  0.78108566     0.02900
C929        C  0.19843704  0.65311748  0.78140897     0.27700
C930        C  0.21838492  0.67649180  0.78936355    -0.24900
N931        N  0.17619337  0.70667200  0.80409793    -0.82300
H932        H  0.14373059  0.66132923  0.78855030     0.13500
C933        C  0.15013363  0.62393148  0.77223537     0.02800
N934        N  0.20542136  0.63468314  0.77372393    -0.80800
H935        H  0.23921769  0.68061244  0.78974709     0.18300
C936        C  0.14894264  0.62486070  0.75516578    -0.25700
C937        C  0.12907695  0.60265043  0.74623069     0.36400
C938        C  0.11062965  0.57848339  0.75458463    -0.19700
C939        C  0.11186629  0.57793711  0.77179135    -0.24900
C940        C  0.13129870  0.60048074  0.78068666     0.27700
H941        H  0.16334003  0.64324092  0.74883025     0.13500
N942        N  0.12725263  0.60499450  0.72882507    -0.82200
H943        H  0.09791928  0.55972355  0.77838647     0.18300
N944        N  0.13207821  0.59969637  0.79825823    -0.80800
H945        H  0.14249411  0.62394612  0.72466612     0.34000
H946        H  0.10870688  0.60407333  0.72637006     0.38500
H947        H  0.11662804  0.58105802  0.80265887     0.33900
H948        H  0.15052100  0.60107985  0.80164394     0.30600
H949        H  0.22622180  0.64161774  0.77502253     0.33900
H950        H  0.19522717  0.61620863  0.77999733     0.30600
H951        H  0.19274960  0.72438960  0.80857465     0.38500
H952        H  0.16355745  0.69653263  0.81403435     0.34000
C953        C  0.29995113  0.78518722  0.83050067    -0.19800
C954        C  0.30549491  0.81207834  0.82849590     0.36400
C955        C  0.32779023  0.83318675  0.83657813    -0.25700
C956        C  0.34436829  0.82770602  0.84676266     0.02900
C957        C  0.33881129  0.80083609  0.84891240     0.27700
C958        C  0.31648323  0.77972605  0.84078875    -0.24900
N959        N  0.28826895  0.81789979  0.81848372    -0.82300
H960        H  0.33197370  0.85387564  0.83509874     0.13500
C961        C  0.36679449  0.85020851  0.85570939     0.02800
N962        N  0.35585970  0.79520779  0.85933833    -0.80800
H963        H  0.31216124  0.75898973  0.84224285     0.18300
C964        C  0.36307518  0.85386442  0.87220471    -0.25700
C965        C  0.38344974  0.87555963  0.88114093     0.36400
C966        C  0.40855974  0.89341949  0.87347703    -0.19700
C967        C  0.41207132  0.88953953  0.85684243    -0.24900
C968        C  0.39132809  0.86815783  0.84785778     0.27700
H969        H  0.34385938  0.84005571  0.87799717     0.13500
N970        N  0.37823478  0.87990115  0.89774068    -0.82200
H971        H  0.43113310  0.90304004  0.85083364     0.18300
N972        N  0.39494743  0.86458813  0.83081227    -0.80800
H973        H  0.35893776  0.86474087  0.90149483     0.34000
H974        H  0.37799565  0.89816944  0.89804370     0.38500
H975        H  0.41410158  0.87967499  0.82681229     0.33900
H976        H  0.39453341  0.84607905  0.82957186     0.30600
H977        H  0.34887767  0.77436175  0.85967300     0.33900
H978        H  0.37524451  0.80438942  0.85409207     0.30600
H979        H  0.30031311  0.83165641  0.80942649     0.38500
H980        H  0.28039514  0.82743554  0.82578616     0.34000
C981        C  0.09666964  0.59461984  0.87487358    -0.19800
C982        C  0.09731261  0.59949568  0.85782209     0.36400
C983        C  0.12148962  0.61956312  0.85057282    -0.25700
C984        C  0.14473242  0.63555282  0.85997991     0.02900
C985        C  0.14410983  0.63141393  0.87698126     0.27700
C986        C  0.12015826  0.61090536  0.88425105    -0.24900
N987        N  0.07333752  0.58472514  0.84794055    -0.82300
H988        H  0.12208395  0.62326692  0.83752196     0.13500
C989        C  0.16926012  0.65707573  0.85174721     0.02800
N990        N  0.16784181  0.64795955  0.88674191    -0.80800
H991        H  0.12008370  0.60743805  0.89727810     0.18300
C992        C  0.17697148  0.68432683  0.85441691    -0.25700
C993        C  0.19830027  0.70518304  0.84544984     0.36400
C994        C  0.21245029  0.69852869  0.83379147    -0.19700
C995        C  0.20562743  0.67129883  0.83189035    -0.24900
C996        C  0.18385424  0.65046024  0.84052968     0.27700
H997        H  0.16563089  0.68920821  0.86309744     0.13500
N998        N  0.20523266  0.73295838  0.84790110    -0.82200
H999        H  0.21713204  0.66624459  0.82346499     0.18300
N1000       N  0.17623291  0.62256607  0.83783765    -0.80800
H1001       H  0.19305045  0.73432565  0.85701025     0.34000
H1002       H  0.20084465  0.73984324  0.83708341     0.38500
H1003       H  0.18873563  0.62110808  0.82898984     0.33900
H1004       H  0.17963522  0.61508319  0.84874948     0.30600
H1005       H  0.16401106  0.64247115  0.89907778     0.33900
H1006       H  0.18312475  0.64393873  0.88304784     0.30600
H1007       H  0.05907480  0.59003234  0.85187225     0.38500
H1008       H  0.07743424  0.59060470  0.83567044     0.34000
N1009       N  0.53410848  0.03388768  0.88838639    -0.27200
N1010       N  0.54252148  0.04724815  0.90233193    -0.35100
C1011       C  0.56548742  0.07093625  0.89963274     0.01100
C1012       C  0.57200248  0.07270662  0.88313392     0.07200
C1013       C  0.55158354  0.04861054  0.87646490    -0.05900
H1014       H  0.57686975  0.08550376  0.90911377     0.07800
H1015       H  0.55000199  0.04150524  0.86404158     0.09000
Cu1016     Cu  0.52412016  0.03115194  0.92462347     0.44200
Cu1017     Cu  0.50027912  0.49541709  0.88638736     0.42000
Cu1018     Cu  0.97405053  0.45951284  0.92469158     0.43900
N1019       N  0.50687697  0.00867983  0.94564836    -0.34600
N1020       N  0.98964290  0.48223977  0.94573321    -0.28800
C1021       C  0.98411380  0.47352641  0.96131168    -0.04900
C1022       C  0.99837704  0.99564174  0.97145761     0.07300
C1023       C  0.51250127  0.01758215  0.96115915     0.01100
H1024       H  0.97065873  0.45269635  0.96494991     0.08700
H1025       H  0.52653712  0.03833539  0.96466015     0.07800
N1026       N  0.95834087  0.44313831  0.90200969    -0.36000
N1027       N  0.96720843  0.45641657  0.88805480    -0.28200
C1028       C  0.95121241  0.44072589  0.87583421    -0.03500
C1029       C  0.93116949  0.41638304  0.88241350     0.05200
C1030       C  0.93668320  0.41862260  0.89905574     0.03300
H1031       H  0.95364561  0.44692626  0.86314265     0.08400
H1032       H  0.92587445  0.40371470  0.90847043     0.07200
N1033       N  0.97561956  0.44635311  0.73884243    -0.27200
N1034       N  0.96412590  0.43649041  0.72449873    -0.35100
C1035       C  0.93938763  0.41467615  0.72693916     0.01100
C1036       C  0.93492146  0.41067160  0.74363267     0.07200
C1037       C  0.95846230  0.43109960  0.75077855    -0.05900
H1038       H  0.92568350  0.40258225  0.71724550     0.07800
H1039       H  0.96314145  0.43431990  0.76369695     0.09000
Cu1040     Cu  0.98301320  0.45232896  0.70221603     0.44200
Cu1041     Cu  0.51424181  0.47996831  0.74155941     0.42000
Cu1042     Cu  0.55444693  0.00263699  0.70454237     0.43900
N1043       N  0.50770616  0.46894464  0.68182529    -0.34600
N1044       N  0.53420172  0.48597097  0.68276578    -0.28800
C1045       C  0.54453455  0.49225584  0.66755602    -0.04900
C1046       C  0.52346123  0.47888657  0.65652938     0.07300
C1047       C  0.50038399  0.46434412  0.66596489     0.01100
H1048       H  0.56564481  0.00631311  0.66474322     0.08700
H1049       H  0.97983488  0.45124770  0.66163954     0.07800
N1050       N  0.56735849  0.02234572  0.72684300    -0.36000
N1051       N  0.55245360  0.01454530  0.74026986    -0.28200
C1052       C  0.56554416  0.03303631  0.75207724    -0.03500
C1053       C  0.58991181  0.05367630  0.74581222     0.05200
C1054       C  0.59036566  0.04587190  0.72976905     0.03300
H1055       H  0.55746146  0.03184282  0.76421429     0.08400
H1056       H  0.60608628  0.05635474  0.72073157     0.07200
N1057       N  0.50988642  0.01787503  0.40569456    -0.27200
N1058       N  0.50059593  0.02208532  0.39180760    -0.35100
C1059       C  0.97840084  0.02410959  0.39491172     0.01100
C1060       C  0.97349474  0.02107711  0.41159765     0.07200
C1061       C  0.99384207  0.01705403  0.41801204    -0.05900
H1062       H  0.96595553  0.02612704  0.38558444     0.07800
H1063       H  0.49640000  0.01307667  0.43065088     0.09000
Cu1064     Cu  0.51650955  0.02142747  0.36916860     0.44200
Cu1065     Cu  0.54225948  0.01076308  0.40705125     0.42000
Cu1066     Cu  0.55951547  0.99101783  0.36885806     0.43900
N1067       N  0.53143338  0.01351959  0.34806928    -0.34600
N1068       N  0.54556842  0.00075297  0.34787514    -0.28800
C1069       C  0.55099467  0.99769270  0.33226042    -0.04900
C1070       C  0.54005240  0.00944401  0.32222921     0.07300
C1071       C  0.52787272  0.01932875  0.33262721     0.01100
H1072       H  0.56274345  0.98837024  0.32853464     0.08700
H1073       H  0.51692682  0.02967442  0.32923221     0.07800
N1074       N  0.57830190  0.99277749  0.39097236    -0.36000
N1075       N  0.57277734  0.00105917  0.40478064    -0.28200
C1076       C  0.59042958  0.00273740  0.41635485    -0.03500
C1077       C  0.60813939  0.99530355  0.40951872     0.05200
C1078       C  0.59949925  0.98879522  0.39341406     0.03300
H1079       H  0.59081167  0.00968571  0.42871693     0.08400
H1080       H  0.60801189  0.98193700  0.38400050     0.07200
N1081       N  0.56939960  0.48773392  0.55612156    -0.27200
N1082       N  0.58103235  0.48864430  0.57032125    -0.35100
C1083       C  0.60433269  0.48841798  0.56756893     0.01100
C1084       C  0.60747378  0.48713807  0.55079791     0.07200
C1085       C  0.58496435  0.48694650  0.54399468    -0.05900
H1086       H  0.61798660  0.48930871  0.57711849     0.07800
H1087       H  0.57991909  0.48575105  0.53113814     0.09000
Cu1088     Cu  0.56389841  0.48894577  0.59276243     0.44200
Cu1089     Cu  0.53237334  0.48660728  0.55364743     0.42000
Cu1090     Cu  0.99508085  0.47845887  0.59075695     0.43900
N1091       N  0.54040667  0.48509391  0.61320292    -0.34600
N1092       N  0.51493819  0.47990645  0.61242109    -0.28800
C1093       C  0.50494748  0.47672582  0.62768775    -0.04900
C1094       C  0.52520273  0.48045878  0.63858176     0.07300
C1095       C  0.54743823  0.48587378  0.62901628     0.01100
H1096       H  0.98457905  0.47242159  0.63063033     0.08700
H1097       H  0.56706738  0.48945345  0.63321601     0.07800
N1098       N  0.98083100  0.48095925  0.56777200    -0.36000
N1099       N  0.99466456  0.48436362  0.55414192    -0.28200
C1100       C  0.98034754  0.48596069  0.54144703    -0.03500
C1101       C  0.95630377  0.48351154  0.54737526     0.05200
C1102       C  0.95732654  0.48021213  0.56412300     0.03300
H1103       H  0.98686478  0.48835403  0.52882956     0.08400
H1104       H  0.94227059  0.47789031  0.57306453     0.07200
N1105       N  0.52111288  0.04007771  0.07225630    -0.27200
N1106       N  0.52021938  0.05162832  0.05840706    -0.35100
C1107       C  0.52156478  0.07540428  0.06176140     0.01100
C1108       C  0.52310868  0.07887189  0.07856424     0.07200
C1109       C  0.52286103  0.05609569  0.08482939    -0.05900
H1110       H  0.52097076  0.08893664  0.05264962     0.07800
H1111       H  0.52419320  0.05159752  0.09755047     0.09000
Cu1112     Cu  0.51573500  0.03375001  0.03574498     0.44200
Cu1113     Cu  0.51965920  0.00299632  0.07327625     0.42000
Cu1114     Cu  0.49878155  0.46308964  0.03607775     0.43900
N1115       N  0.00669306  0.01000463  0.01499397    -0.34600
N1116       N  0.99910024  0.48390083  0.01514161    -0.28800
C1117       C  0.99423589  0.47452019  0.99968644    -0.04900
C1118       C  0.99935967  0.49586647  0.98938578     0.07300
C1119       C  0.00725030  0.01802902  0.99946289     0.01100
H1120       H  0.98847650  0.45399205  0.99618175     0.08700
H1121       H  0.01305479  0.03851544  0.99579777     0.07800
N1122       N  0.50732472  0.44998455  0.05782615    -0.36000
N1123       N  0.51592843  0.46500210  0.07117896    -0.28200
C1124       C  0.52124539  0.45146115  0.08274528    -0.03500
C1125       C  0.51572430  0.42655649  0.07644843     0.05200
C1126       C  0.50668660  0.42635235  0.06059801     0.03300
H1127       H  0.52879703  0.45938704  0.09483168     0.08400
H1128       H  0.49976746  0.41022643  0.05168583     0.07200
N1129       N  0.55574447  0.48653760  0.22030245    -0.27200
N1130       N  0.55081937  0.47222333  0.23386477    -0.35100
C1131       C  0.54842747  0.44810764  0.23026511     0.01100
C1132       C  0.55212275  0.44698914  0.21355236     0.07200
C1133       C  0.55705879  0.47204991  0.20770205    -0.05900
H1134       H  0.54369491  0.43234221  0.23921842     0.07800
H1135       H  0.56127343  0.47948708  0.19527559     0.09000
Cu1136     Cu  0.54735021  0.48588046  0.25666104     0.44200
Cu1137     Cu  0.55768573  0.02388984  0.21960299     0.42000
Cu1138     Cu  0.54312360  0.04683308  0.25825010     0.43900
N1139       N  0.54449689  0.00312225  0.27827012    -0.34600
N1140       N  0.54179609  0.02489898  0.27889000    -0.28800
C1141       C  0.53956290  0.03039620  0.29462924    -0.04900
C1142       C  0.54134143  0.01135127  0.30431253     0.07300
C1143       C  0.54456737  0.99444541  0.29357185     0.01100
H1144       H  0.53738681  0.04730885  0.29872162     0.08700
H1145       H  0.54643789  0.47690930  0.29661399     0.07800
N1146       N  0.54893196  0.06659564  0.23598276    -0.36000
N1147       N  0.55458595  0.05851981  0.22210930    -0.28200
C1148       C  0.55747721  0.07604898  0.21016516    -0.03500
C1149       C  0.55368436  0.09629344  0.21683277     0.05200
C1150       C  0.54809708  0.08948914  0.23320430     0.03300
H1151       H  0.56145741  0.07380007  0.19749657     0.08400
H1152       H  0.54393610  0.10048883  0.24247648     0.07200
C1153       C  0.53295628  0.28146256  0.13756222     0.02400
C1154       C  0.53840151  0.28455269  0.15456914     0.02300
C1155       C  0.54170495  0.26492565  0.16306159    -0.18200
C1156       C  0.53993257  0.24243190  0.15494302     0.02400
C1157       C  0.53494231  0.23954624  0.13790304     0.02300
C1158       C  0.53097794  0.25882328  0.12944766    -0.18200
H1159       H  0.52717013  0.25663772  0.11637868     0.04400
H1160       H  0.54528327  0.26695711  0.17615562     0.04400
C1161       C  0.73365377  0.21780990  0.80606508     0.02400
C1162       C  0.73420645  0.21974195  0.82337033     0.02300
C1163       C  0.75618251  0.24202339  0.83092608    -0.18200
C1164       C  0.77729616  0.26241431  0.82169502     0.02400
C1165       C  0.77686677  0.26043816  0.80442898     0.02300
C1166       C  0.75500869  0.23805665  0.79685001    -0.18200
H1167       H  0.75475656  0.23614569  0.78364388     0.04400
H1168       H  0.75702634  0.24345031  0.84416518     0.04400
C1169       C  0.76029905  0.48844444  0.48699452     0.02400
C1170       C  0.76252767  0.49336156  0.46991014     0.02300
C1171       C  0.78515447  0.99578464  0.46151252    -0.18200
C1172       C  0.80561555  0.49358803  0.46978642     0.02400
C1173       C  0.80343877  0.48858483  0.48677531     0.02300
C1174       C  0.78090262  0.48626066  0.49523341    -0.18200
H1175       H  0.77934587  0.48264976  0.50832132     0.04400
H1176       H  0.78703004  0.99973020  0.44845474     0.04400
C1177       C  0.54264621  0.22179801  0.16459657    -0.19800
C1178       C  0.52063882  0.19511348  0.16613125     0.36400
C1179       C  0.52429186  0.17576914  0.17470072    -0.25700
C1180       C  0.54925872  0.18275965  0.18214359     0.02900
C1181       C  0.57118839  0.20958044  0.18084598     0.27700
C1182       C  0.56760701  0.22891186  0.17210791    -0.24900
N1183       N  0.99463250  0.18789366  0.15910443    -0.82300
H1184       H  0.00750697  0.15514237  0.17574220     0.13500
C1185       C  0.55159409  0.16177361  0.19164971     0.02800
N1186       N  0.59685214  0.21705814  0.18847129    -0.80800
H1187       H  0.58438657  0.24952186  0.17094987     0.18300
C1188       C  0.57056759  0.15407445  0.18697385    -0.25700
C1189       C  0.57214377  0.13316885  0.19524237     0.36400
C1190       C  0.55400121  0.11943687  0.20825482    -0.19700
C1191       C  0.53555617  0.12771745  0.21315585    -0.24900
C1192       C  0.53424483  0.14880427  0.20503704     0.27700
H1193       H  0.58398209  0.16424592  0.17674332     0.13500
N1194       N  0.59229175  0.12613141  0.19061498    -0.82200
H1195       H  0.52172819  0.11736398  0.22318055     0.18300
N1196       N  0.51526881  0.15707300  0.21025872    -0.80800
H1197       H  0.60394290  0.13813146  0.18082083     0.34000
H1198       H  0.60561857  0.13072090  0.20050181     0.38500
H1199       H  0.00384445  0.14539778  0.22020993     0.33900
H1200       H  0.02653995  0.17709373  0.21440771     0.30600
H1201       H  0.61087452  0.23750542  0.18626606     0.33900
H1202       H  0.59371468  0.21500980  0.20111639     0.30600
H1203       H  0.98726596  0.19912397  0.16513739     0.38500
H1204       H  0.98063670  0.16741829  0.16123959     0.34000
C1205       C  0.55034136  0.42346136  0.20438301    -0.19800
C1206       C  0.54462150  0.41953432  0.18738069     0.36400
C1207       C  0.54298449  0.39669702  0.17963039    -0.25700
C1208       C  0.54589637  0.37719134  0.18850946     0.02900
C1209       C  0.55099437  0.38065127  0.20543936     0.27700
C1210       C  0.55364859  0.40390736  0.21311404    -0.24900
N1211       N  0.53973542  0.43813009  0.17805078    -0.82300
H1212       H  0.53900280  0.39383048  0.16659715     0.13500
C1213       C  0.54352878  0.35316295  0.17993795     0.02800
N1214       N  0.55309337  0.36031568  0.21480289    -0.80800
H1215       H  0.55821413  0.40656560  0.22605969     0.18300
C1216       C  0.56555063  0.34842433  0.18033227    -0.25700
C1217       C  0.56418011  0.32592941  0.17235308     0.36400
C1218       C  0.54031027  0.30795436  0.16372849    -0.19700
C1219       C  0.51813752  0.31248749  0.16354814    -0.24900
C1220       C  0.51951280  0.33496474  0.17154373     0.27700
H1221       H  0.58396144  0.36251033  0.18678566     0.13500
N1222       N  0.58694712  0.32136349  0.17288750    -0.82200
H1223       H  0.99966003  0.29834137  0.15718137     0.18300
N1224       N  0.99659542  0.33928428  0.17130810    -0.80800
H1225       H  0.60286769  0.33645600  0.17975593     0.34000
H1226       H  0.59425826  0.32298608  0.16097605     0.38500
H1227       H  0.98062593  0.32418394  0.16446647     0.33900
H1228       H  0.98955943  0.33737418  0.18332098     0.30600
H1229       H  0.55690213  0.36591105  0.22712148     0.33900
H1230       H  0.53416007  0.34252299  0.21434407     0.30600
H1231       H  0.52167220  0.43659179  0.18236339     0.38500
H1232       H  0.53643991  0.43252588  0.16571541     0.34000
C1233       C  0.52517554  0.10231095  0.08765664    -0.19800
C1234       C  0.51109387  0.09897858  0.10249587     0.36400
C1235       C  0.51365455  0.12196317  0.11056091    -0.25700
C1236       C  0.52973044  0.14802026  0.10400134     0.02900
C1237       C  0.54373353  0.15138301  0.08920295     0.27700
C1238       C  0.54129325  0.12846730  0.08116311    -0.24900
N1239       N  0.99368834  0.07232149  0.10907568    -0.82300
H1240       H  0.00282159  0.11959344  0.12190523     0.13500
C1241       C  0.53101226  0.17158943  0.11247528     0.02800
N1242       N  0.56014492  0.17803662  0.08235623    -0.80800
H1243       H  0.55212342  0.13104028  0.06979765     0.18300
C1244       C  0.55553358  0.19100599  0.11965738    -0.25700
C1245       C  0.55745425  0.21372549  0.12768499     0.36400
C1246       C  0.53426497  0.21676851  0.12868491    -0.19700
C1247       C  0.00990524  0.19760270  0.12120500    -0.24900
C1248       C  0.00803320  0.17495329  0.11311585     0.27700
H1249       H  0.57316837  0.18837748  0.11896988     0.13500
N1250       N  0.58280235  0.23375274  0.13479507    -0.82200
H1251       H  0.99221431  0.20012895  0.12194549     0.18300
N1252       N  0.98295646  0.15533312  0.10553149    -0.80800
H1253       H  0.59779894  0.22840017  0.13311460     0.34000
H1254       H  0.58924074  0.25197918  0.12849925     0.38500
H1255       H  0.96795520  0.16068424  0.10719472     0.33900
H1256       H  0.98639270  0.15594069  0.09293368     0.30600
H1257       H  0.56922530  0.17702420  0.07145982     0.33900
H1258       H  0.54717340  0.18549943  0.07929753     0.30600
H1259       H  0.97765901  0.06191192  0.10082177     0.38500
H1260       H  0.98495221  0.07349281  0.12007591     0.34000
C1261       C  0.53036710  0.30226583  0.12798389    -0.19800
C1262       C  0.55282148  0.32853262  0.12590538     0.36400
C1263       C  0.54948109  0.34842285  0.11781765    -0.25700
C1264       C  0.52408401  0.34239301  0.11156472     0.02900
C1265       C  0.50158906  0.31602939  0.11331873     0.27700
C1266       C  0.50497596  0.29607379  0.12148020    -0.24900
N1267       N  0.57913115  0.33495268  0.13183589    -0.82300
H1268       H  0.56683327  0.36862056  0.11629006     0.13500
C1269       C  0.52163589  0.36377025  0.10275149     0.02800
N1270       N  0.97551557  0.30974885  0.10681878    -0.80800
H1271       H  0.48772591  0.27584865  0.12310303     0.18300
C1272       C  0.52289493  0.36444956  0.08566225    -0.25700
C1273       C  0.52180184  0.38506438  0.07675856     0.34600
C1274       C  0.51825786  0.40486461  0.08518395    -0.19700
C1275       C  0.01722895  0.40408028  0.10241197    -0.24900
C1276       C  0.01915311  0.38389000  0.11127109     0.27700
H1277       H  0.52542290  0.34914796  0.07928545     0.13500
N1278       N  0.52513730  0.38629816  0.05930055    -0.82200
H1279       H  0.01461695  0.41906608  0.10906433     0.18300
N1280       N  0.01881209  0.38380415  0.12886694    -0.80800
H1281       H  0.52727127  0.37009292  0.05508923     0.34000
H1282       H  0.54337420  0.40400311  0.05659715     0.38500
H1283       H  0.01726428  0.40023140  0.13329977     0.33900
H1284       H  0.00128476  0.36621377  0.13266474     0.30600
H1285       H  0.96113152  0.28942386  0.10904998     0.33900
H1286       H  0.96901039  0.32141320  0.11319913     0.30600
H1287       H  0.59246716  0.34118691  0.12188724     0.38500
H1288       H  0.58585932  0.35138743  0.13985228     0.34000
C1289       C  0.93395486  0.48394538  0.53806450    -0.19800
C1290       C  0.93907196  0.00104073  0.52434338     0.36400
C1291       C  0.91711595  0.00083658  0.51612935    -0.25700
C1292       C  0.89026638  0.48421004  0.52144052     0.02900
C1293       C  0.88511137  0.46732941  0.53517409     0.27700
C1294       C  0.90698070  0.46730959  0.54331319    -0.24900
N1295       N  0.96648662  0.01909130  0.51906462    -0.82300
H1296       H  0.92092262  0.01393791  0.50563501     0.13500
C1297       C  0.86778084  0.48525716  0.51277302     0.02800
N1298       N  0.85770319  0.45051230  0.54088502    -0.80800
H1299       H  0.90291783  0.45417255  0.55380983     0.18300
C1300       C  0.84896875  0.46276300  0.50363887    -0.25700
C1301       C  0.82751070  0.46322938  0.49523158     0.36400
C1302       C  0.82500845  0.48668154  0.49597164    -0.19700
C1303       C  0.84360559  0.00900575  0.50525262    -0.24900
C1304       C  0.86500280  0.00853293  0.51368140     0.27700
H1305       H  0.85114497  0.44489169  0.50304149     0.13500
N1306       N  0.80832140  0.44010306  0.48592049    -0.82200
H1307       H  0.84150884  0.02692740  0.50577537     0.18300
N1308       N  0.88392615  0.03154153  0.52318866    -0.80800
H1309       H  0.81314280  0.42459989  0.48650134     0.34000
H1310       H  0.78924950  0.43256921  0.49139845     0.38500
H1311       H  0.87916026  0.04707643  0.52250536     0.33900
H1312       H  0.88159274  0.02543821  0.53543579     0.30600
H1313       H  0.85734882  0.43920692  0.55108472     0.33900
H1314       H  0.85060025  0.46335118  0.54483477     0.30600
H1315       H  0.97634503  0.03321842  0.52840934     0.38500
H1316       H  0.96664998  0.03013197  0.50877248     0.34000
C1317       C  0.62983015  0.48628843  0.54178237    -0.19800
C1318       C  0.64372616  0.47345948  0.54829765     0.36400
C1319       C  0.66493753  0.47364189  0.53928315    -0.25700
C1320       C  0.67218487  0.48589661  0.52384108     0.02900
C1321       C  0.65810026  0.49817574  0.51713945     0.27700
C1322       C  0.63704860  0.49823298  0.52615821    -0.24900
N1323       N  0.63589727  0.45971940  0.56379914    -0.82300
H1324       H  0.67577936  0.46401439  0.54423715     0.13500
C1325       C  0.69480438  0.48597949  0.51483144     0.02800
N1326       N  0.66518681  0.51038986  0.50116859    -0.80800
H1327       H  0.62651654  0.50804403  0.52103814     0.18300
C1328       C  0.68914658  0.46529219  0.50354856    -0.25700
C1329       C  0.71002575  0.46495218  0.49457806     0.36400
C1330       C  0.73719540  0.48635415  0.49666264    -0.19700
C1331       C  0.74278177  0.00672844  0.50823043    -0.24900
C1332       C  0.72184252  0.00672379  0.51736749     0.27700
H1333       H  0.66833621  0.44911827  0.50183035     0.13500
N1334       N  0.70293837  0.44212768  0.48405449    -0.82200
H1335       H  0.76357097  0.02297531  0.50990584     0.18300
N1336       N  0.72778268  0.02797207  0.52895741    -0.80800
H1337       H  0.69074099  0.44266939  0.47461718     0.34000
H1338       H  0.72003532  0.44294860  0.47873124     0.38500
H1339       H  0.74863428  0.04199165  0.52912769     0.33900
H1340       H  0.72286212  0.01915240  0.54059032     0.30600
H1341       H  0.65263349  0.51823712  0.49787742     0.33900
H1342       H  0.68500586  0.52687759  0.50180590     0.30600
H1343       H  0.61613348  0.44331843  0.56253148     0.38500
H1344       H  0.64826518  0.45153242  0.56682090     0.34000
C1345       C  0.82992939  0.99813607  0.46062746    -0.19800
C1346       C  0.82980877  0.47808028  0.45033021     0.36400
C1347       C  0.85397343  0.48341597  0.44259425    -0.25700
C1348       C  0.87801551  0.00828121  0.44474269     0.02900
C1349       C  0.87794997  0.02857665  0.45455796     0.27700
C1350       C  0.85384662  0.02323922  0.46246836    -0.24900
N1351       N  0.80579235  0.45227051  0.44740980    -0.82300
H1352       H  0.85404695  0.46798161  0.43485595     0.13500
C1353       C  0.90320000  0.01246124  0.43682736     0.02800
N1354       N  0.90238005  0.05434477  0.45654205    -0.80800
H1355       H  0.85368772  0.03860174  0.47023298     0.18300
C1356       C  0.91474863  0.03144591  0.42414666    -0.25700
C1357       C  0.93809710  0.03510921  0.41594030     0.36400
C1358       C  0.94982411  0.01915758  0.42044205    -0.19700
C1359       C  0.93853446  0.00065207  0.43345629    -0.24900
C1360       C  0.91537230  0.49721973  0.44173643     0.27700
H1361       H  0.90537495  0.04328688  0.42060085     0.13500
N1362       N  0.95008819  0.05516734  0.40323552    -0.82200
H1363       H  0.94747324  0.48842291  0.43698777     0.18300
N1364       N  0.90401708  0.47824908  0.45505730    -0.80800
H1365       H  0.93890795  0.06504631  0.40141856     0.34000
H1366       H  0.96938853  0.06992209  0.40726523     0.38500
H1367       H  0.91530379  0.46854035  0.45710323     0.33900
H1368       H  0.90581233  0.48932423  0.46564932     0.30600
H1369       H  0.89878044  0.06711611  0.46403274     0.33900
H1370       H  0.91658337  0.05087820  0.46265668     0.30600
H1371       H  0.78905017  0.45022681  0.45389535     0.38500
H1372       H  0.80957438  0.43714045  0.45173713     0.34000
C1373       C  0.74108183  0.99492946  0.46038412    -0.19800
C1374       C  0.73518242  0.51598108  0.46276530     0.36400
C1375       C  0.71359660  0.51565733  0.45416054    -0.25700
C1376       C  0.69807747  0.99482111  0.44301549     0.02900
C1377       C  0.70461108  0.97429205  0.44012550     0.27700
C1378       C  0.72628693  0.97472672  0.44873427    -0.24900
N1379       N  0.75138108  0.53794530  0.47364662    -0.82300
H1380       H  0.70893800  0.53175360  0.45615014     0.13500
C1381       C  0.67495686  0.99469912  0.43450620     0.02800
N1382       N  0.68888490  0.95286484  0.42870692    -0.80800
H1383       H  0.73114213  0.95876227  0.44676951     0.18300
C1384       C  0.67614598  0.99862333  0.41754928    -0.25700
C1385       C  0.65488842  0.99929997  0.40907996     0.36400
C1386       C  0.63152857  0.99520346  0.41777132    -0.19700
C1387       C  0.63052444  0.49125107  0.43481335    -0.24900
C1388       C  0.65197866  0.49093932  0.44325255     0.27700
H1389       H  0.69406511  0.00176919  0.41096587     0.13500
N1390       N  0.65745269  0.00494564  0.39182855    -0.82200
H1391       H  0.61275208  0.48796981  0.44159376     0.18300
N1392       N  0.65049455  0.48661260  0.46065218    -0.80800
H1393       H  0.67566769  0.00705659  0.38733766     0.34000
H1394       H  0.65855241  0.02371201  0.39017230     0.38500
H1395       H  0.63230403  0.48432711  0.46530283     0.33900
H1396       H  0.65011334  0.46827788  0.46278723     0.30600
H1397       H  0.69640832  0.93943715  0.42796749     0.33900
H1398       H  0.66910847  0.94173916  0.43332769     0.30600
H1399       H  0.73844134  0.53894898  0.48235943     0.38500
H1400       H  0.75997028  0.55596523  0.46688098     0.34000
C1401       C  0.91077751  0.38843606  0.75193500    -0.19800
C1402       C  0.90128341  0.39255296  0.76705323     0.36400
C1403       C  0.87916008  0.37055604  0.77481640    -0.25700
C1404       C  0.86607151  0.34475843  0.76765791     0.02900
C1405       C  0.87498565  0.34063642  0.75243925     0.27700
C1406       C  0.89719787  0.36256988  0.74466974    -0.24900
N1407       N  0.91372834  0.41909115  0.77432126    -0.82300
H1408       H  0.87194750  0.37350514  0.78648116     0.13500
C1409       C  0.84329882  0.32214996  0.77646050     0.02800
N1410       N  0.86151614  0.31418591  0.74501943    -0.80800
H1411       H  0.90433895  0.35927826  0.73308644     0.18300
C1412       C  0.81650677  0.31541270  0.77278526    -0.25700
C1413       C  0.79458198  0.29510520  0.78163228     0.36400
C1414       C  0.79947296  0.28097902  0.79417127    -0.19700
C1415       C  0.82632434  0.28719963  0.79741046    -0.24900
C1416       C  0.84833648  0.30801382  0.78887948     0.27700
H1417       H  0.81267585  0.32644837  0.76330099     0.13500
N1418       N  0.76748588  0.28959438  0.77829487    -0.82200
H1419       H  0.83013944  0.27607066  0.80682574     0.18300
N1420       N  0.87581635  0.31528947  0.79297681    -0.80800
H1421       H  0.76696612  0.30756881  0.77995056     0.34000
H1422       H  0.76314757  0.28393968  0.76601100     0.38500
H1423       H  0.87606350  0.30337504  0.80266805     0.33900
H1424       H  0.88415769  0.31082703  0.78287037     0.30600
H1425       H  0.87042869  0.31459462  0.73375991     0.33900
H1426       H  0.86461114  0.30111050  0.75258527     0.30600
H1427       H  0.91024059  0.43161564  0.76649135     0.38500
H1428       H  0.90438503  0.41856234  0.78543837     0.34000
C1429       C  0.71168079  0.19430254  0.79723591    -0.19800
C1430       C  0.68439127  0.18879596  0.79692862     0.36400
C1431       C  0.66456712  0.16546327  0.78891749    -0.25700
C1432       C  0.67138909  0.14776439  0.78108621     0.02900
C1433       C  0.69843656  0.15311716  0.78140911     0.27700
C1434       C  0.71838469  0.17649137  0.78936365    -0.24900
N1435       N  0.67619373  0.20667167  0.80409898    -0.82300
H1436       H  0.64373035  0.16132890  0.78855148     0.13500
C1437       C  0.65013289  0.12393128  0.77223597     0.02800
N1438       N  0.70542063  0.13468289  0.77372370    -0.80800
H1439       H  0.73921746  0.18061195  0.78974692     0.18300
C1440       C  0.64894199  0.12486041  0.75516638    -0.25700
C1441       C  0.62907637  0.10265011  0.74623129     0.36400
C1442       C  0.61062895  0.07848317  0.75458524    -0.19700
C1443       C  0.61186543  0.07793698  0.77179197    -0.24900
C1444       C  0.63129785  0.10048061  0.78068728     0.27700
H1445       H  0.66333948  0.14324055  0.74883083     0.13500
N1446       N  0.62725237  0.10499405  0.72882564    -0.82200
H1447       H  0.59791833  0.05972345  0.77838708     0.18300
N1448       N  0.63207730  0.09969632  0.79825885    -0.80800
H1449       H  0.64249400  0.12394555  0.72466669     0.34000
H1450       H  0.60870664  0.10407285  0.72637043     0.38500
H1451       H  0.61662710  0.08105799  0.80265950     0.33900
H1452       H  0.65052004  0.10107974  0.80164459     0.30600
H1453       H  0.72622110  0.14161743  0.77502205     0.33900
H1454       H  0.69522657  0.11620827  0.77999699     0.30600
H1455       H  0.69275011  0.22438925  0.80857554     0.38500
H1456       H  0.66355823  0.19653236  0.81403558     0.34000
C1457       C  0.79995159  0.28518716  0.83050064    -0.19800
C1458       C  0.80549563  0.31207831  0.82849545     0.36400
C1459       C  0.82779077  0.33318682  0.83657773    -0.25700
C1460       C  0.84436842  0.32770621  0.84676269     0.02900
C1461       C  0.83881128  0.30083630  0.84891278     0.27700
C1462       C  0.81648335  0.27972612  0.84078911    -0.24900
N1463       N  0.78827005  0.31789971  0.81848286    -0.82300
H1464       H  0.83197438  0.35387571  0.83509805     0.13500
C1465       C  0.86679445  0.35020889  0.85570938     0.02800
N1466       N  0.85585941  0.29520817  0.85933907    -0.80800
H1467       H  0.81216119  0.25898979  0.84224351     0.18300
C1468       C  0.86307533  0.35386447  0.87220479    -0.25700
C1469       C  0.88344966  0.37556001  0.88114092     0.36400
C1470       C  0.90855922  0.39342056  0.87347681    -0.19700
C1471       C  0.91207062  0.38954088  0.85684214    -0.24900
C1472       C  0.89132761  0.36815885  0.84785759     0.27700
H1473       H  0.84385985  0.34005526  0.87799738     0.13500
N1474       N  0.87823487  0.37990113  0.89774078    -0.82200
H1475       H  0.93113209  0.40304185  0.85083319     0.18300
N1476       N  0.89494675  0.36458937  0.83081201    -0.80800
H1477       H  0.85893818  0.36474036  0.90149507     0.34000
H1478       H  0.87799502  0.39816904  0.89804399     0.38500
H1479       H  0.91410055  0.37967673  0.82681187     0.33900
H1480       H  0.89453348  0.34608067  0.82957150     0.30600
H1481       H  0.84887731  0.27436212  0.85967395     0.33900
H1482       H  0.87524433  0.30438966  0.85409300     0.30600
H1483       H  0.80031452  0.33165619  0.80942566     0.38500
H1484       H  0.78039609  0.32743563  0.82578502     0.34000
C1485       C  0.59666955  0.09461946  0.87487395    -0.19800
C1486       C  0.59731287  0.09949473  0.85782237     0.36400
C1487       C  0.62148999  0.11956204  0.85057309    -0.25700
C1488       C  0.64473255  0.13555233  0.85998025     0.02900
C1489       C  0.64410954  0.13141410  0.87698170     0.27700
C1490       C  0.62015793  0.11090552  0.88425149    -0.24900
N1491       N  0.57333796  0.08472379  0.84794073    -0.82300
H1492       H  0.62208454  0.12326534  0.83752216     0.13500
C1493       C  0.66926037  0.15707523  0.85174752     0.02800
N1494       N  0.66784118  0.14796037  0.88674247    -0.80800
H1495       H  0.62008315  0.10743863  0.89727861     0.18300
C1496       C  0.67697200  0.18432638  0.85441732    -0.25700
C1497       C  0.69830093  0.20518261  0.84545032     0.36400
C1498       C  0.71245091  0.19852830  0.83379190    -0.19700
C1499       C  0.70562783  0.17129839  0.83189069    -0.24900
C1500       C  0.68385444  0.15045976  0.84052992     0.27700
H1501       H  0.66563151  0.18920780  0.86309789     0.13500
N1502       N  0.70523342  0.23295795  0.84790169    -0.82200
H1503       H  0.71713237  0.16624411  0.82346529     0.18300
N1504       N  0.67623292  0.12256558  0.83783775    -0.80800
H1505       H  0.69305120  0.23432518  0.85701083     0.34000
H1506       H  0.70084555  0.23984298  0.83708400     0.38500
H1507       H  0.68873562  0.12110761  0.82898990     0.33900
H1508       H  0.67963515  0.11508253  0.84874952     0.30600
H1509       H  0.66401011  0.14247242  0.89907839     0.33900
H1510       H  0.68312439  0.14393965  0.88304887     0.30600
H1511       H  0.55907509  0.09003097  0.85187213     0.38500
H1512       H  0.57743485  0.09060298  0.83567057     0.34000
N1513       N  0.53410828  0.53388854  0.88838594    -0.27200
N1514       N  0.54252156  0.54724876  0.90233154    -0.35100
C1515       C  0.56548776  0.57093662  0.89963242     0.01100
C1516       C  0.57200262  0.57270707  0.88313356     0.07200
C1517       C  0.55158337  0.54861129  0.87646446    -0.05900
H1518       H  0.57687033  0.58550390  0.90911349     0.07800
H1519       H  0.55000157  0.54150615  0.86404109     0.09000
Cu1520     Cu  0.52412035  0.53115256  0.92462305     0.44200
Cu1521     Cu  0.50027968  0.99541579  0.88638796     0.42000
Cu1522     Cu  0.97405037  0.95951164  0.92469214     0.43900
N1523       N  0.50687737  0.50868055  0.94564797    -0.34600
N1524       N  0.98964264  0.98223901  0.94573367    -0.28800
C1525       C  0.98411358  0.97352578  0.96131217    -0.04900
C1526       C  0.99837738  0.49564227  0.97145717     0.07300
C1527       C  0.51250170  0.51758275  0.96115878     0.01100
H1528       H  0.97065870  0.95269572  0.96495047     0.08700
H1529       H  0.52653752  0.53833596  0.96465984     0.07800
N1530       N  0.95834125  0.94313690  0.90201015    -0.36000
N1531       N  0.96720923  0.95641508  0.88805526    -0.28200
C1532       C  0.95121349  0.94072438  0.87583459    -0.03500
C1533       C  0.93117024  0.91638164  0.88241381     0.05200
C1534       C  0.93668353  0.91862125  0.89905611     0.03300
H1535       H  0.95364697  0.94692473  0.86314301     0.08400
H1536       H  0.92587431  0.90371349  0.90847079     0.07200
N1537       N  0.97561875  0.94635338  0.73884243    -0.27200
N1538       N  0.96412557  0.93649023  0.72449869    -0.35100
C1539       C  0.93938727  0.91467598  0.72693905     0.01100
C1540       C  0.93492061  0.91067190  0.74363254     0.07200
C1541       C  0.95846119  0.93110014  0.75077849    -0.05900
H1542       H  0.92568343  0.90258180  0.71724537     0.07800
H1543       H  0.96313995  0.93432082  0.76369691     0.09000
Cu1544     Cu  0.98301341  0.95232819  0.70221607     0.44200
Cu1545     Cu  0.51424084  0.97996868  0.74155965     0.42000
Cu1546     Cu  0.55444695  0.50263723  0.70454177     0.43900
N1547       N  0.50770684  0.96894416  0.68182556    -0.34600
N1548       N  0.53420232  0.98597076  0.68276623    -0.28800
C1549       C  0.54453537  0.99225609  0.66755653    -0.04900
C1550       C  0.52346225  0.97888685  0.65652976     0.07300
C1551       C  0.50038493  0.96434391  0.66596513     0.01100
H1552       H  0.56564404  0.50631248  0.66474259     0.08700
H1553       H  0.97983593  0.95124740  0.66163966     0.07800
N1554       N  0.56735896  0.52234594  0.72684240    -0.36000
N1555       N  0.55245440  0.51454525  0.74026938    -0.28200
C1556       C  0.56554505  0.53303624  0.75207677    -0.03500
C1557       C  0.58991243  0.55367651  0.74581161     0.05200
C1558       C  0.59036601  0.54587230  0.72976836     0.03300
H1559       H  0.55746260  0.53184248  0.76421392     0.08400
H1560       H  0.60608639  0.55635536  0.72073076     0.07200
N1561       N  0.50988645  0.51787516  0.40569437    -0.27200
N1562       N  0.50059569  0.52208504  0.39180740    -0.35100
C1563       C  0.97840032  0.52410892  0.39491149     0.01100
C1564       C  0.97349445  0.52107673  0.41159746     0.07200
C1565       C  0.99384210  0.51705416  0.41801186    -0.05900
H1566       H  0.96595472  0.52612589  0.38558420     0.07800
H1567       H  0.49640030  0.51307712  0.43065075     0.09000
Cu1568     Cu  0.51650903  0.52142672  0.36916843     0.44200
Cu1569     Cu  0.54225963  0.51076348  0.40705102     0.42000
Cu1570     Cu  0.55951494  0.49101701  0.36885807     0.43900
N1571       N  0.53143289  0.51351872  0.34806925    -0.34600
N1572       N  0.54556797  0.50075213  0.34787518    -0.28800
C1573       C  0.55099432  0.49769187  0.33226050    -0.04900
C1574       C  0.54005203  0.50944311  0.32222926     0.07300
C1575       C  0.52787226  0.51932784  0.33262719     0.01100
H1576       H  0.56274322  0.48836950  0.32853479     0.08700
H1577       H  0.51692640  0.52967353  0.32923215     0.07800
N1578       N  0.57830146  0.49277706  0.39097231    -0.36000
N1579       N  0.57277720  0.50105922  0.40478050    -0.28200
C1580       C  0.59042966  0.50273781  0.41635465    -0.03500
C1581       C  0.60813932  0.49530374  0.40951857     0.05200
C1582       C  0.59949883  0.48879484  0.39341402     0.03300
H1583       H  0.59081210  0.50968665  0.42871663     0.08400
H1584       H  0.60801133  0.48193639  0.38400050     0.07200
N1585       N  0.56940108  0.98773574  0.55612209    -0.27200
N1586       N  0.58103359  0.98864571  0.57032180    -0.35100
C1587       C  0.60433358  0.98841872  0.56756955     0.01100
C1588       C  0.60747474  0.98713883  0.55079854     0.07200
C1589       C  0.58496566  0.98694793  0.54399525    -0.05900
H1590       H  0.61798728  0.98930912  0.57711916     0.07800
H1591       H  0.57992052  0.98575271  0.53113870     0.09000
Cu1592     Cu  0.56389992  0.98894760  0.59276294     0.44200
Cu1593     Cu  0.53237515  0.98660969  0.55364781     0.42000
Cu1594     Cu  0.99508210  0.97845988  0.59075726     0.43900
N1595       N  0.54040813  0.98509553  0.61320337    -0.34600
N1596       N  0.51493961  0.97990794  0.61242150    -0.28800
C1597       C  0.50494875  0.97672694  0.62768815    -0.04900
C1598       C  0.52520395  0.98045975  0.63858217     0.07300
C1599       C  0.54743957  0.98587508  0.62901674     0.01100
H1600       H  0.98458023  0.97242237  0.63063075     0.08700
H1601       H  0.56706866  0.98945461  0.63321649     0.07800
N1602       N  0.98083161  0.98095904  0.56777217    -0.36000
N1603       N  0.99466555  0.98436421  0.55414215    -0.28200
C1604       C  0.98034824  0.98596059  0.54144718    -0.03500
C1605       C  0.95630387  0.98351010  0.54737530     0.05200
C1606       C  0.95732653  0.98021058  0.56412303     0.03300
H1607       H  0.98686577  0.98835459  0.52882975     0.08400
H1608       H  0.94227017  0.97788804  0.57306445     0.07200
N1609       N  0.52111228  0.54007814  0.07225565    -0.27200
N1610       N  0.52021919  0.55162890  0.05840639    -0.35100
C1611       C  0.52156471  0.57540493  0.06176067     0.01100
C1612       C  0.52310831  0.57887243  0.07856350     0.07200
C1613       C  0.52286034  0.55609611  0.08482872    -0.05900
H1614       H  0.52097091  0.58893735  0.05264884     0.07800
H1615       H  0.52419218  0.55159780  0.09754982     0.09000
Cu1616     Cu  0.51573495  0.53375043  0.03574445     0.44200
Cu1617     Cu  0.51965800  0.50299652  0.07327554     0.42000
Cu1618     Cu  0.49878438  0.96309023  0.03607804     0.43900
N1619       N  0.00669274  0.51000494  0.01499354    -0.34600
N1620       N  0.99910164  0.98390078  0.01514198    -0.28800
C1621       C  0.99423710  0.97452004  0.99968682    -0.04900
C1622       C  0.99935963  0.99586601  0.98938621     0.07300
C1623       C  0.00725087  0.51802959  0.99946243     0.01100
H1624       H  0.98847851  0.95399212  0.99618210     0.08700
H1625       H  0.01305623  0.53851623  0.99579729     0.07800
N1626       N  0.50732684  0.94998486  0.05782656    -0.36000
N1627       N  0.51592980  0.96500199  0.07117956    -0.28200
C1628       C  0.52124592  0.95146058  0.08274600    -0.03500
C1629       C  0.51572498  0.92655604  0.07644902     0.05200
C1630       C  0.50668831  0.92635248  0.06059841     0.03300
H1631       H  0.52879687  0.95938608  0.09483256     0.08400
H1632       H  0.49976944  0.91022679  0.05168608     0.07200
N1633       N  0.55574411  0.98653717  0.22030245    -0.27200
N1634       N  0.55081882  0.97222294  0.23386481    -0.35100
C1635       C  0.54842718  0.94810730  0.23026526     0.01100
C1636       C  0.55212276  0.94698882  0.21355255     0.07200
C1637       C  0.55705879  0.97204952  0.20770215    -0.05900
H1638       H  0.54369466  0.93234192  0.23921861     0.07800
H1639       H  0.56127362  0.97948663  0.19527567     0.09000
Cu1640     Cu  0.54734933  0.98588030  0.25666094     0.44200
Cu1641     Cu  0.55768646  0.52389047  0.21960324     0.42000
Cu1642     Cu  0.54312340  0.54683253  0.25825044     0.43900
N1643       N  0.54449712  0.50312181  0.27827024    -0.34600
N1644       N  0.54179583  0.52489825  0.27889016    -0.28800
C1645       C  0.53956240  0.53039526  0.29462939    -0.04900
C1646       C  0.54134125  0.51135049  0.30431263     0.07300
C1647       C  0.54456765  0.49444493  0.29357195     0.01100
H1648       H  0.53738596  0.54730769  0.29872179     0.08700
H1649       H  0.54643727  0.97690958  0.29661391     0.07800
N1650       N  0.54893266  0.56659599  0.23598344    -0.36000
N1651       N  0.55458700  0.55852060  0.22210994    -0.28200
C1652       C  0.55747885  0.57605033  0.21016603    -0.03500
C1653       C  0.55368598  0.59629464  0.21683384     0.05200
C1654       C  0.54809808  0.58948971  0.23320525     0.03300
H1655       H  0.56145947  0.57380193  0.19749744     0.08400
H1656       H  0.54393681  0.60048905  0.24247752     0.07200
C1657       C  0.53295670  0.78146219  0.13756264     0.02400
C1658       C  0.53840216  0.78455246  0.15456953     0.02300
C1659       C  0.54170582  0.76492553  0.16306193    -0.18200
C1660       C  0.53993340  0.74243177  0.15494334     0.02400
C1661       C  0.53494289  0.73954602  0.13790339     0.02300
C1662       C  0.53097832  0.75882293  0.12944807    -0.18200
H1663       H  0.52717033  0.75663729  0.11637910     0.04400
H1664       H  0.54528430  0.76695710  0.17615594     0.04400
C1665       C  0.73365341  0.71781037  0.80606478     0.02400
C1666       C  0.73420591  0.71974232  0.82337002     0.02300
C1667       C  0.75618191  0.74202362  0.83092591    -0.18200
C1668       C  0.77729565  0.76241456  0.82169495     0.02400
C1669       C  0.77686627  0.76043869  0.80442889     0.02300
C1670       C  0.75500832  0.73805723  0.79684980    -0.18200
H1671       H  0.75475627  0.73614641  0.78364367     0.04400
H1672       H  0.75702561  0.74345042  0.84416501     0.04400
C1673       C  0.76030033  0.98844605  0.48699524     0.02400
C1674       C  0.76252819  0.99336231  0.46991076     0.02300
C1675       C  0.78515429  0.49578436  0.46151210    -0.18200
C1676       C  0.80561596  0.99358843  0.46978667     0.02400
C1677       C  0.80343980  0.98858589  0.48677565     0.02300
C1678       C  0.78090414  0.98626247  0.49523397    -0.18200
H1679       H  0.77934779  0.98265200  0.50832193     0.04400
H1680       H  0.78703032  0.49973045  0.44845438     0.04400
C1681       C  0.54264732  0.72179806  0.16459687    -0.19800
C1682       C  0.52064021  0.69511336  0.16613148     0.36400
C1683       C  0.52429348  0.67576933  0.17470112    -0.25700
C1684       C  0.54926024  0.68276034  0.18214431     0.02900
C1685       C  0.57118963  0.70958126  0.18084674     0.27700
C1686       C  0.56760807  0.72891235  0.17210842    -0.24900
N1687       N  0.99463390  0.68789306  0.15910444    -0.82300
H1688       H  0.00750882  0.65514238  0.17574251     0.13500
C1689       C  0.55159582  0.66177468  0.19165070     0.02800
N1690       N  0.59685324  0.71705945  0.18847240    -0.80800
H1691       H  0.58438743  0.74952246  0.17095042     0.18300
C1692       C  0.57057006  0.65407621  0.18697532    -0.25700
C1693       C  0.57214638  0.63317085  0.19524403     0.36400
C1694       C  0.55400314  0.61943833  0.20825609    -0.19700
C1695       C  0.53555758  0.62771843  0.21315678    -0.24900
C1696       C  0.53424615  0.64880508  0.20503782     0.27700
H1697       H  0.58398500  0.66424800  0.17674502     0.13500
N1698       N  0.59229521  0.62613424  0.19061726    -0.82200
H1699       H  0.52172920  0.61736465  0.22318126     0.18300
N1700       N  0.51526950  0.65707325  0.21025909    -0.80800
H1701       H  0.60394694  0.63813475  0.18082341     0.34000
H1702       H  0.60562136  0.63072380  0.20050447     0.38500
H1703       H  0.00384494  0.64539789  0.22021023     0.33900
H1704       H  0.02654011  0.67709400  0.21440810     0.30600
H1705       H  0.61087543  0.73750679  0.18626716     0.33900
H1706       H  0.59371538  0.71501118  0.20111747     0.30600
H1707       H  0.98726698  0.69912317  0.16513722     0.38500
H1708       H  0.98063831  0.66741762  0.16123963     0.34000
C1709       C  0.55034168  0.92346117  0.20438323    -0.19800
C1710       C  0.54462115  0.91953374  0.18738100     0.36400
C1711       C  0.54298434  0.89669654  0.17963071    -0.25700
C1712       C  0.54589702  0.87719129  0.18850972     0.02900
C1713       C  0.55099573  0.88065163  0.20543955     0.27700
C1714       C  0.55364977  0.90390766  0.21311420    -0.24900
N1715       N  0.53973399  0.93812891  0.17805123    -0.82300
H1716       H  0.53900215  0.89382971  0.16659752     0.13500
C1717       C  0.54352945  0.85316287  0.17993823     0.02800
N1718       N  0.55309543  0.86031641  0.21480304    -0.80800
H1719       H  0.55821573  0.90656622  0.22605980     0.18300
C1720       C  0.56555131  0.84842425  0.18033258    -0.25700
C1721       C  0.56418074  0.82592922  0.17235349     0.36400
C1722       C  0.54031089  0.80795412  0.16372890    -0.19700
C1723       C  0.51813820  0.81248734  0.16354845    -0.24900
C1724       C  0.51951350  0.83496466  0.17154396     0.27700
H1725       H  0.58396216  0.86251030  0.18678592     0.13500
N1726       N  0.58694775  0.82136329  0.17288798    -0.82200
H1727       H  0.99966078  0.79834127  0.15718164     0.18300
N1728       N  0.99659622  0.83928430  0.17130821    -0.80800
H1729       H  0.60286832  0.83645586  0.17975638     0.34000
H1730       H  0.59425891  0.82298575  0.16097655     0.38500
H1731       H  0.98062678  0.82418400  0.16446652     0.33900
H1732       H  0.98956009  0.83737418  0.18332105     0.30600
H1733       H  0.55690458  0.86591203  0.22712159     0.33900
H1734       H  0.53416227  0.84252358  0.21434448     0.30600
H1735       H  0.52167083  0.93659029  0.18236424     0.38500
H1736       H  0.53643787  0.93252440  0.16571592     0.34000
C1737       C  0.52517517  0.60231147  0.08765587    -0.19800
C1738       C  0.51109364  0.59897906  0.10249517     0.36400
C1739       C  0.51365453  0.62196362  0.11056030    -0.25700
C1740       C  0.52973049  0.64802072  0.10400077     0.02900
C1741       C  0.54373337  0.65138354  0.08920229     0.27700
C1742       C  0.54129284  0.62846784  0.08116232    -0.24900
N1743       N  0.99368812  0.57232196  0.10907495    -0.82300
H1744       H  0.00282170  0.61959386  0.12190467     0.13500
C1745       C  0.53101255  0.67158979  0.11247488     0.02800
N1746       N  0.56014486  0.67803719  0.08235564    -0.80800
H1747       H  0.55212285  0.63104085  0.06979679     0.18300
C1748       C  0.55553390  0.69100601  0.11965711    -0.25700
C1749       C  0.55745468  0.71372528  0.12768506     0.36400
C1750       C  0.53426545  0.71676836  0.12868517    -0.19700
C1751       C  0.00990569  0.69760288  0.12120509    -0.24900
C1752       C  0.00803357  0.67495373  0.11311563     0.27700
H1753       H  0.57316860  0.68837737  0.11896949     0.13500
N1754       N  0.58280280  0.73375217  0.13479530    -0.82200
H1755       H  0.99221481  0.70012918  0.12194571     0.18300
N1756       N  0.98295684  0.65533390  0.10553108    -0.80800
H1757       H  0.59779931  0.72839959  0.13311460     0.34000
H1758       H  0.58924131  0.75197891  0.12849977     0.38500
H1759       H  0.96795561  0.66068505  0.10719447     0.33900
H1760       H  0.98639315  0.65594188  0.09293328     0.30600
H1761       H  0.56922504  0.67702479  0.07145914     0.33900
H1762       H  0.54717346  0.68550024  0.07929712     0.30600
H1763       H  0.97765867  0.56191249  0.10082111     0.38500
H1764       H  0.98495217  0.57349324  0.12007528     0.34000
C1765       C  0.53036719  0.80226521  0.12798432    -0.19800
C1766       C  0.55282110  0.82853238  0.12590625     0.36400
C1767       C  0.54948022  0.84842236  0.11781862    -0.25700
C1768       C  0.52408322  0.84239182  0.11156523     0.02900
C1769       C  0.50158882  0.81602776  0.11331862     0.27700
C1770       C  0.50497616  0.79607246  0.12148011    -0.24900
N1771       N  0.57913080  0.83495310  0.13183708    -0.82300
H1772       H  0.56683201  0.86862040  0.11629143     0.13500
C1773       C  0.52163479  0.86376884  0.10275203     0.02800
N1774       N  0.97551547  0.80974646  0.10681802    -0.80800
H1775       H  0.48772651  0.77584697  0.12310253     0.18300
C1776       C  0.52289453  0.86444854  0.08566281    -0.25700
C1777       C  0.52180198  0.88506365  0.07675916     0.34600
C1778       C  0.51825776  0.90486375  0.08518455    -0.19700
C1779       C  0.01722793  0.90407888  0.10241255    -0.24900
C1780       C  0.01915152  0.88388828  0.11127165     0.27700
H1781       H  0.52542286  0.84914717  0.07928603     0.13500
N1782       N  0.52513839  0.88629795  0.05930122    -0.82200
H1783       H  0.01461570  0.91906456  0.10906490     0.18300
N1784       N  0.01880966  0.88380190  0.12886750    -0.80800
H1785       H  0.52727238  0.87009272  0.05508988     0.34000
H1786       H  0.54337554  0.90400285  0.05659819     0.38500
H1787       H  0.01726154  0.90022895  0.13330035     0.33900
H1788       H  0.00128221  0.86621133  0.13266499     0.30600
H1789       H  0.96113187  0.78942119  0.10904880     0.33900
H1790       H  0.96900918  0.82140998  0.11319828     0.30600
H1791       H  0.59246720  0.84118794  0.12188862     0.38500
H1792       H  0.58585822  0.85138758  0.13985362     0.34000
C1793       C  0.93395498  0.98394378  0.53806444    -0.19800
C1794       C  0.93907152  0.50104038  0.52434247     0.36400
C1795       C  0.91711541  0.50083601  0.51612844    -0.25700
C1796       C  0.89026667  0.98420885  0.52144049     0.02900
C1797       C  0.88511131  0.96732607  0.53517304     0.27700
C1798       C  0.90698058  0.96730609  0.54331214    -0.24900
N1799       N  0.96648597  0.51908922  0.51906267    -0.82300
H1800       H  0.92092181  0.51393576  0.50563332     0.13500
C1801       C  0.86778125  0.98525646  0.51277315     0.02800
N1802       N  0.85770284  0.95050706  0.54088300    -0.80800
H1803       H  0.90291753  0.95416757  0.55380805     0.18300
C1804       C  0.84897105  0.96276393  0.50363712    -0.25700
C1805       C  0.82751331  0.96323090  0.49522982     0.36400
C1806       C  0.82500937  0.98668200  0.49597181    -0.19700
C1807       C  0.84360663  0.50900700  0.50525052    -0.24900
C1808       C  0.86500407  0.50853474  0.51367934     0.27700
H1809       H  0.85114852  0.94489344  0.50303828     0.13500
N1810       N  0.80832591  0.94010619  0.48591685    -0.82200
H1811       H  0.84151115  0.52692947  0.50577175     0.18300
N1812       N  0.88392931  0.53154501  0.52318474    -0.80800
H1813       H  0.81314839  0.92460369  0.48649643     0.34000
H1814       H  0.78925327  0.93257016  0.49139418     0.38500
H1815       H  0.87916449  0.54708055  0.52250016     0.33900
H1816       H  0.88159695  0.52544438  0.53543235     0.30600
H1817       H  0.85734829  0.93920032  0.55108203     0.33900
H1818       H  0.85059877  0.96334460  0.54483356     0.30600
H1819       H  0.97634550  0.53321777  0.52840654     0.38500
H1820       H  0.96664904  0.53012842  0.50876985     0.34000
C1821       C  0.62983120  0.98628930  0.54178308    -0.19800
C1822       C  0.64372800  0.97346133  0.54829867     0.36400
C1823       C  0.66493994  0.97364455  0.53928439    -0.25700
C1824       C  0.67218677  0.98589864  0.52384215     0.02900
C1825       C  0.65810113  0.99817638  0.51714011     0.27700
C1826       C  0.63704919  0.99823323  0.52615876    -0.24900
N1827       N  0.63589928  0.95972131  0.56380018    -0.82300
H1828       H  0.67578246  0.96401791  0.54423863     0.13500
C1829       C  0.69480623  0.98598151  0.51483251     0.02800
N1830       N  0.66518689  0.01038945  0.50116896    -0.80800
H1831       H  0.62651655  0.00804347  0.52103841     0.18300
C1832       C  0.68914826  0.96529399  0.50354978    -0.25700
C1833       C  0.71002724  0.96495384  0.49457919     0.36400
C1834       C  0.73719692  0.98635586  0.49666356    -0.19700
C1835       C  0.74278005  0.50672652  0.50822960    -0.24900
C1836       C  0.72184067  0.50672163  0.51736664     0.27700
H1837       H  0.66833787  0.94912001  0.50183174     0.13500
N1838       N  0.70293968  0.94212915  0.48405576    -0.82200
H1839       H  0.76356924  0.52297331  0.50990519     0.18300
N1840       N  0.72778073  0.52796950  0.52895684    -0.80800
H1841       H  0.69074207  0.94267063  0.47461851     0.34000
H1842       H  0.72003650  0.94294996  0.47873242     0.38500
H1843       H  0.74863235  0.54198893  0.52912735     0.33900
H1844       H  0.72285986  0.51914937  0.54058963     0.30600
H1845       H  0.65263276  0.01823564  0.49787748     0.33900
H1846       H  0.68500561  0.02687779  0.50180591     0.30600
H1847       H  0.61613579  0.94331981  0.56253243     0.38500
H1848       H  0.64826772  0.95153503  0.56682209     0.34000
C1849       C  0.82992911  0.49813568  0.46062743    -0.19800
C1850       C  0.82980806  0.97808184  0.45032865     0.36400
C1851       C  0.85397254  0.98341757  0.44259238    -0.25700
C1852       C  0.87801562  0.50828081  0.44474315     0.02900
C1853       C  0.87794894  0.52857744  0.45455669     0.27700
C1854       C  0.85384544  0.52323995  0.46246692    -0.24900
N1855       N  0.80579098  0.95227304  0.44740712    -0.82300
H1856       H  0.85404538  0.96798409  0.43485290     0.13500
C1857       C  0.90320022  0.51246107  0.43682776     0.02800
N1858       N  0.90237797  0.55434694  0.45653914    -0.80800
H1859       H  0.85368572  0.53860335  0.47023029     0.18300
C1860       C  0.91474831  0.53144530  0.42414677    -0.25700
C1861       C  0.93809653  0.53510844  0.41594017     0.36400
C1862       C  0.94982389  0.51915716  0.42044196    -0.19700
C1863       C  0.93853477  0.50065204  0.43345643    -0.24900
C1864       C  0.91537176  0.99721965  0.44173606     0.27700
H1865       H  0.90537433  0.54328595  0.42060087     0.13500
N1866       N  0.95008693  0.55516600  0.40323502    -0.82200
H1867       H  0.94747267  0.98842271  0.43698762     0.18300
N1868       N  0.90401588  0.97824854  0.45505667    -0.80800
H1869       H  0.93890647  0.56504471  0.40141804     0.34000
H1870       H  0.96938741  0.56992106  0.40726437     0.38500
H1871       H  0.91530245  0.96853967  0.45710268     0.33900
H1872       H  0.90581068  0.98932331  0.46564879     0.30600
H1873       H  0.89877756  0.56711901  0.46402862     0.33900
H1874       H  0.91658252  0.55088295  0.46265440     0.30600
H1875       H  0.78904910  0.95022892  0.45389324     0.38500
H1876       H  0.80957221  0.93714175  0.45173309     0.34000
C1877       C  0.74108184  0.49492939  0.46038342    -0.19800
C1878       C  0.73518142  0.01598045  0.46276618     0.36400
C1879       C  0.71359521  0.01565605  0.45416150    -0.25700
C1880       C  0.69807830  0.49482231  0.44301469     0.02900
C1881       C  0.70461100  0.47429259  0.44012487     0.27700
C1882       C  0.72628650  0.47472664  0.44873369    -0.24900
N1883       N  0.75137951  0.03794472  0.47364760    -0.82300
H1884       H  0.70893594  0.03175183  0.45615123     0.13500
C1885       C  0.67495774  0.49470064  0.43450559     0.02800
N1886       N  0.68888427  0.45286530  0.42870644    -0.80800
H1887       H  0.73114104  0.45876170  0.44676909     0.18300
C1888       C  0.67614645  0.49862453  0.41754866    -0.25700
C1889       C  0.65488860  0.49930083  0.40907951     0.36400
C1890       C  0.63152887  0.49520426  0.41777104    -0.19700
C1891       C  0.63052364  0.99124973  0.43481359    -0.24900
C1892       C  0.65197755  0.99093763  0.44325296     0.27700
H1893       H  0.69406544  0.50177028  0.41096510     0.13500
N1894       N  0.65745239  0.50494624  0.39182807    -0.82200
H1895       H  0.61275112  0.98796836  0.44159386     0.18300
N1896       N  0.65049289  0.98661043  0.46065255    -0.80800
H1897       H  0.67566741  0.50705740  0.38733705     0.34000
H1898       H  0.65855184  0.52371248  0.39017180     0.38500
H1899       H  0.63230222  0.98432477  0.46530303     0.33900
H1900       H  0.65011161  0.96827564  0.46278748     0.30600
H1901       H  0.69640702  0.43943708  0.42796719     0.33900
H1902       H  0.66910782  0.44174016  0.43332731     0.30600
H1903       H  0.73843940  0.03894779  0.48236039     0.38500
H1904       H  0.75996825  0.05596471  0.46688204     0.34000
C1905       C  0.91077637  0.88843669  0.75193480    -0.19800
C1906       C  0.90128213  0.89255394  0.76705288     0.36400
C1907       C  0.87915862  0.87055726  0.77481604    -0.25700
C1908       C  0.86607002  0.84475955  0.76765768     0.02900
C1909       C  0.87498423  0.84063720  0.75243914     0.27700
C1910       C  0.89719662  0.86257044  0.74466964    -0.24900
N1911       N  0.91372725  0.91909222  0.77432081    -0.82300
H1912       H  0.87194604  0.87350658  0.78648074     0.13500
C1913       C  0.84329757  0.82215119  0.77646043     0.02800
N1914       N  0.86151474  0.81418656  0.74501947    -0.80800
H1915       H  0.90433780  0.85927855  0.73308645     0.18300
C1916       C  0.81650542  0.81541369  0.77278533    -0.25700
C1917       C  0.79458087  0.79510600  0.78163238     0.36400
C1918       C  0.79947224  0.78097990  0.79417125    -0.19700
C1919       C  0.82632374  0.78720085  0.79741034    -0.24900
C1920       C  0.84833563  0.80801525  0.78887934     0.27700
H1921       H  0.81267421  0.82644922  0.76330111     0.13500
N1922       N  0.76748461  0.78959482  0.77829510    -0.82200
H1923       H  0.83013915  0.77607195  0.80682550     0.18300
N1924       N  0.87581565  0.81529123  0.79297650    -0.80800
H1925       H  0.76696459  0.80756909  0.77995086     0.34000
H1926       H  0.76314621  0.78394009  0.76601123     0.38500
H1927       H  0.87606311  0.80337692  0.80266772     0.33900
H1928       H  0.88415695  0.81082893  0.78287000     0.30600
H1929       H  0.87042738  0.81459504  0.73376002     0.33900
H1930       H  0.86460963  0.80111124  0.75258546     0.30600
H1931       H  0.91023979  0.93161678  0.76649080     0.38500
H1932       H  0.90438395  0.91856364  0.78543789     0.34000
C1933       C  0.71168069  0.69430297  0.79723550    -0.19800
C1934       C  0.68439119  0.68879636  0.79692781     0.36400
C1935       C  0.66456732  0.66546361  0.78891660    -0.25700
C1936       C  0.67138956  0.64776469  0.78108564     0.02900
C1937       C  0.69843702  0.65311750  0.78140893     0.27700
C1938       C  0.71838489  0.67649180  0.78936352    -0.24900
N1939       N  0.67619334  0.70667199  0.80409791    -0.82300
H1940       H  0.64373054  0.66132920  0.78855030     0.13500
C1941       C  0.65013359  0.62393148  0.77223536     0.02800
N1942       N  0.70542134  0.63468312  0.77372393    -0.80800
H1943       H  0.73921765  0.68061240  0.78974710     0.18300
C1944       C  0.64894260  0.62486070  0.75516577    -0.25700
C1945       C  0.62907691  0.60265043  0.74623069     0.36400
C1946       C  0.61062961  0.57848339  0.75458463    -0.19700
C1947       C  0.61186625  0.57793711  0.77179134    -0.24900
C1948       C  0.63129866  0.60048074  0.78068666     0.27700
H1949       H  0.66334000  0.64324091  0.74883025     0.13500
N1950       N  0.62725259  0.60499450  0.72882507    -0.82200
H1951       H  0.59791925  0.55972355  0.77838646     0.18300
N1952       N  0.63207817  0.59969638  0.79825823    -0.80800
H1953       H  0.64249408  0.62394613  0.72466613     0.34000
H1954       H  0.60870685  0.60407335  0.72637005     0.38500
H1955       H  0.61662801  0.58105802  0.80265887     0.33900
H1956       H  0.65052096  0.60107985  0.80164394     0.30600
H1957       H  0.72622179  0.64161772  0.77502254     0.33900
H1958       H  0.69522716  0.61620865  0.77999734     0.30600
H1959       H  0.69274959  0.72438962  0.80857460     0.38500
H1960       H  0.66355747  0.69653259  0.81403434     0.34000
C1961       C  0.79995113  0.78518721  0.83050067    -0.19800
C1962       C  0.80549496  0.81207834  0.82849589     0.36400
C1963       C  0.82779028  0.83318674  0.83657812    -0.25700
C1964       C  0.84436829  0.82770599  0.84676268     0.02900
C1965       C  0.83881128  0.80083605  0.84891242     0.27700
C1966       C  0.81648320  0.77972601  0.84078876    -0.24900
N1967       N  0.78826899  0.81789981  0.81848373    -0.82300
H1968       H  0.83197378  0.85387564  0.83509872     0.13500
C1969       C  0.86679449  0.85020848  0.85570940     0.02800
N1970       N  0.85585972  0.79520777  0.85933831    -0.80800
H1971       H  0.81216119  0.75898968  0.84224286     0.18300
C1972       C  0.86307518  0.85386442  0.87220471    -0.25700
C1973       C  0.88344975  0.87555963  0.88114093     0.36400
C1974       C  0.90855976  0.89341945  0.87347703    -0.19700
C1975       C  0.91207133  0.88953945  0.85684244    -0.24900
C1976       C  0.89132808  0.86815778  0.84785779     0.27700
H1977       H  0.84385939  0.84005574  0.87799717     0.13500
N1978       N  0.87823481  0.87990115  0.89774067    -0.82200
H1979       H  0.93113310  0.90303994  0.85083364     0.18300
N1980       N  0.89494739  0.86458811  0.83081227    -0.80800
H1981       H  0.85893778  0.86474089  0.90149482     0.34000
H1982       H  0.87799569  0.89816945  0.89804370     0.38500
H1983       H  0.91410152  0.87967496  0.82681227     0.33900
H1984       H  0.89453334  0.84607902  0.82957183     0.30600
H1985       H  0.84887769  0.77436172  0.85967298     0.33900
H1986       H  0.87524450  0.80438939  0.85409204     0.30600
H1987       H  0.80031311  0.83165641  0.80942648     0.38500
H1988       H  0.78039521  0.82743556  0.82578619     0.34000
C1989       C  0.59666963  0.59461981  0.87487358    -0.19800
C1990       C  0.59731262  0.59949566  0.85782209     0.36400
C1991       C  0.62148962  0.61956312  0.85057282    -0.25700
C1992       C  0.64473240  0.63555282  0.85997991     0.02900
C1993       C  0.64410981  0.63141389  0.87698126     0.27700
C1994       C  0.62015825  0.61090530  0.88425104    -0.24900
N1995       N  0.57333751  0.58472515  0.84794056    -0.82300
H1996       H  0.62208395  0.62326695  0.83752196     0.13500
C1997       C  0.66926011  0.65707573  0.85174721     0.02800
N1998       N  0.66784179  0.64795949  0.88674191    -0.80800
H1999       H  0.62008368  0.60743796  0.89727809     0.18300
C2000       C  0.67697146  0.68432683  0.85441690    -0.25700
C2001       C  0.69830026  0.70518304  0.84544984     0.36400
C2002       C  0.71245030  0.69852869  0.83379148    -0.19700
C2003       C  0.70562742  0.67129883  0.83189035    -0.24900
C2004       C  0.68385422  0.65046024  0.84052968     0.27700
H2005       H  0.66563086  0.68920822  0.86309742     0.13500
N2006       N  0.70523264  0.73295837  0.84790109    -0.82200
H2007       H  0.71713201  0.66624458  0.82346498     0.18300
N2008       N  0.67623287  0.62256607  0.83783765    -0.80800
H2009       H  0.69305041  0.73432563  0.85701024     0.34000
H2010       H  0.70084462  0.73984323  0.83708340     0.38500
H2011       H  0.68873559  0.62110807  0.82898984     0.33900
H2012       H  0.67963518  0.61508319  0.84874948     0.30600
H2013       H  0.66401102  0.64247104  0.89907778     0.33900
H2014       H  0.68312469  0.64393861  0.88304784     0.30600
H2015       H  0.55907482  0.59003236  0.85187230     0.38500
H2016       H  0.57743422  0.59060475  0.83567045     0.34000
loop_ 
_geom_bond_atom_site_label_1 
_geom_bond_atom_site_label_2 
_geom_bond_distance 
_geom_bond_site_symmetry_2 
_ccdc_geom_bond_type 
N1            N2   1.320       .  A
N1            C5   1.344       .  A
N1         Cu513   2.074   1_545  S
N2            C3   1.345       .  A
N2           Cu8   2.073       .  S
C3            C4   1.389       .  A
C3            H6   1.081       .  S
C4            C5   1.390       .  A
C4          C477   1.492       .  S
C5            H7   1.080       .  S
Cu8          N11   2.072       .  S
Cu9         N505   2.074       .  S
Cu9        N1027   2.074   1_455  S
Cu10         N12   2.066       .  S
Cu10         N18   2.066       .  S
N11        N1524   1.322   1_445  A
N11          C15   1.343       .  A
N12        N1523   1.322       .  A
N12          C13   1.345       .  A
C13         C518   1.381       .  A
C13          H16   1.082       .  S
C14         C517   1.381       .  A
C14        C1023   1.381   1_565  A
C14         C614   1.466       .  S
C15        C1022   1.381   1_445  A
C15          H17   1.082       .  S
N18          N19   1.321       .  A
N18          C22   1.342       .  A
N19          C20   1.345       .  A
N19       Cu1017   2.074       .  S
C20          C21   1.388       .  A
C20          H23   1.082       .  S
C21          C22   1.387       .  A
C21         C462   1.487       .  S
C22          H24   1.080       .  S
N25          N26   1.322       .  A
N25          C29   1.345       .  A
N25       Cu1041   2.079       .  S
N26          C27   1.345       .  A
N26         Cu32   2.077       .  S
C27          C28   1.386       .  A
C27          H30   1.082       .  S
C28          C29   1.387       .  A
C28         C393   1.486       .  S
C29          H31   1.082       .  S
Cu32       N1043   2.077       .  S
Cu33       N1033   2.079   1_455  S
Cu33        N547   2.079       .  S
Cu34         N42   2.073       .  S
Cu34        N540   2.072   1_545  S
N35          N36   1.322       .  A
N35          C39   1.346       .  A
N35       Cu1040   2.077   1_455  S
N36          C37   1.345       .  A
N36        Cu538   2.072       .  S
C37          C38   1.382       .  A
C37         H544   1.082       .  S
C38          C39   1.383       .  A
C38          C86   1.470       .  S
C39        H1049   1.082   1_455  S
H40         C541   1.082   1_545  S
H41        C1047   1.082       .  S
N42          N43   1.321       .  A
N42          C46   1.344       .  A
N43          C44   1.345       .  A
N43        Cu537   2.079   1_545  S
C44          C45   1.390       .  A
C44          H47   1.081       .  S
C45          C46   1.389       .  A
C45         C434   1.493       .  S
C46          H48   1.080       .  S
N49          N50   1.321       .  A
N49        C1061   1.343   1_455  A
N49         Cu57   2.070       .  S
N50        C1059   1.344   1_455  A
N50         Cu56   2.069       .  S
C51        N1058   1.344       .  A
C51          C52   1.386       .  A
C51          H54   1.082       .  S
C52          C53   1.385       .  A
C52         C350   1.481       .  S
C53        N1057   1.343       .  A
C53        H1063   1.082       .  S
H55        C1061   1.082       .  S
Cu56         N59   2.069       .  S
Cu57         N67   2.070       .  S
Cu58         N60   2.073   1_565  S
Cu58         N66   2.073       .  S
N59          N60   1.323       .  A
N59          C63   1.344       .  A
N60          C61   1.345   1_545  A
C61          C62   1.383   1_565  A
C61          H64   1.082       .  S
C62          C63   1.381       .  A
C62         C134   1.467       .  S
C63          H65   1.082       .  S
N66          N67   1.321   1_565  A
N66          C70   1.344       .  A
N67          C68   1.344       .  A
C68          C69   1.388   1_545  A
C68          H71   1.082       .  S
C69          C70   1.388       .  A
C69         C378   1.489       .  S
C70          H72   1.080       .  S
N73          N74   1.322       .  A
N73          C77   1.344       .  A
N73         Cu81   2.078       .  S
N74          C75   1.347       .  A
N74         Cu80   2.082       .  S
C75          C76   1.389       .  A
C75          H78   1.081       .  S
C76          C77   1.386       .  A
C76         C309   1.489       .  S
C77          H79   1.082       .  S
Cu80         N83   2.081       .  S
Cu81       N1099   2.078   1_455  S
Cu82         N90   2.076       .  S
Cu82       N1092   2.076       .  S
N83          N84   1.323       .  A
N83          C87   1.346       .  A
N84          C85   1.346       .  A
N84       Cu1090   2.076   1_455  S
C85          C86   1.382       .  A
C85        H1096   1.082   1_455  S
C86          C87   1.383       .  A
C87          H89   1.082       .  S
H88        C1093   1.082       .  S
N90          N91   1.321       .  A
N90          C94   1.345       .  A
N91          C92   1.346       .  A
N91       Cu1089   2.078       .  S
C92          C93   1.388       .  A
C92          H95   1.081       .  S
C93          C94   1.386       .  A
C93         C281   1.487       .  S
C94          H96   1.082       .  S
N97          N98   1.321       .  A
N97         C101   1.344       .  A
N97        Cu105   2.069       .  S
N98          C99   1.344       .  A
N98        Cu104   2.068       .  S
C99         C100   1.384       .  A
C99         H102   1.082       .  S
C100        C101   1.385       .  A
C100        C225   1.479       .  S
C101        H103   1.082       .  S
Cu104      N1115   2.068       .  S
Cu105       N619   2.069   1_545  S
Cu106       N114   2.074   1_655  S
Cu106      N1116   2.073       .  S
N107        N612   1.323   1_545  A
N107        C111   1.343   1_554  A
N107      Cu1112   2.068       .  S
N108        N611   1.323       .  A
N108        C109   1.345   1_554  A
N108      Cu1114   2.073       .  S
C109        C110   1.382       .  A
C109        H112   1.082       .  S
C110        C615   1.380       .  A
C110        C518   1.466       .  S
C111        C614   1.380   1_545  A
C111        H113   1.082       .  S
N114        N115   1.320       .  A
N114        C118   1.344       .  A
N115        C116   1.343       .  A
N115       Cu609   2.069       .  S
C116        C117   1.388       .  A
C116        H119   1.081       .  S
C117        C118   1.390       .  A
C117        C266   1.491       .  S
C118        H120   1.080   1_455  S
N121        N122   1.319       .  A
N121        C125   1.345       .  A
N121       Cu633   2.071       .  S
N122        C123   1.341       .  A
N122       Cu128   2.067       .  S
C123        C124   1.389       .  A
C123        H126   1.081       .  S
C124        C125   1.391       .  A
C124        C197   1.493       .  S
C125        H127   1.080       .  S
Cu128       N635   2.067       .  S
Cu129       N139   2.072       .  S
Cu129       N625   2.071   1_545  S
Cu130       N132   2.075       .  S
Cu130       N138   2.076       .  S
N131        N132   1.322       .  A
N131        C135   1.344   1_545  A
N131       Cu632   2.067   1_545  S
N132        C133   1.345       .  A
C133        C134   1.383       .  A
C133        H136   1.082       .  S
C134        C135   1.381   1_545  A
C135        H641   1.082       .  S
H137        C639   1.082       .  S
N138        N139   1.323       .  A
N138        C142   1.344       .  A
N139        C140   1.344       .  A
C140        C141   1.384       .  A
C140        H143   1.082       .  S
C141        C142   1.385       .  A
C141        C182   1.481       .  S
C142        H144   1.082       .  S
C145        C146   1.415       .  A
C145        C150   1.402       .  A
C145        C253   1.484       .  S
C146        C147   1.402       .  A
C146        C210   1.484       .  S
C147        C148   1.400       .  A
C147        H152   1.084       .  S
C148        C149   1.414       .  A
C148        C169   1.482       .  S
C149        C150   1.404       .  A
C149        C238   1.483       .  S
C150        H151   1.084       .  S
C153        C154   1.418       .  A
C153        C158   1.403       .  A
C153        C421   1.482       .  S
C154        C155   1.401       .  A
C154        C490   1.489       .  S
C155        C156   1.401       .  A
C155        H160   1.084       .  S
C156        C157   1.415       .  A
C156        C449   1.478       .  S
C157        C158   1.402       .  A
C157        C406   1.489       .  S
C158        H159   1.084       .  S
C161        C162   1.417       .  A
C161        C166   1.405       .  A
C161        C322   1.485       .  S
C162        C667   1.401       .  A
C162        C869   1.482       .  S
C163        C666   1.401       .  A
C163        C668   1.400       .  A
C163        H168   1.085       .  S
C164        C165   1.410       .  A
C164        C667   1.400       .  A
C164        C841   1.475       .  S
C165        C166   1.401       .  A
C165        C294   1.483       .  S
C166        H167   1.084       .  S
C169        C170   1.409       .  A
C169        C174   1.403       .  A
C170        C171   1.402       .  A
C170       N1183   1.437   1_455  S
C171        C172   1.403       .  A
C171       H1184   1.084       .  S
C172        C173   1.411       .  A
C172        C177   1.482       .  S
C173        C174   1.406       .  A
C173        N178   1.437       .  S
C174        H179   1.084       .  S
N175       C1178   1.437       .  S
N175        H195   1.045       .  S
N175        H196   1.046       .  S
H176       C1179   1.084       .  S
C177        C180   1.402       .  A
C177        C184   1.410       .  A
N178        H193   1.046       .  S
N178        H194   1.045       .  S
C180        C181   1.407       .  A
C180        H185   1.084       .  S
C181        C182   1.414       .  A
C181        N186   1.437       .  S
C182        C183   1.403       .  A
C183        C184   1.403       .  A
C183        H187   1.083       .  S
C184        N188   1.438       .  S
N186        H189   1.046       .  S
N186        H190   1.046       .  S
N188       H1199   1.046       .  S
N188       H1200   1.046       .  S
H191       N1196   1.046       .  S
H192       N1196   1.046       .  S
C197        C198   1.419       .  A
C197        C202   1.408       .  A
C198        C199   1.406       .  A
C198        N203   1.436       .  S
C199        C200   1.401       .  A
C199        H204   1.084       .  S
C200        C201   1.407       .  A
C200        C205   1.481       .  S
C201        C202   1.403       .  A
C201        N206   1.438       .  S
C202        H207   1.082       .  S
N203        H223   1.045       .  S
N203        H224   1.046       .  S
C205        C208   1.403       .  A
C205        C212   1.410       .  A
N206        H221   1.046       .  S
N206        H222   1.046       .  S
C208        C209   1.403       .  A
C208        H213   1.084       .  S
C209        C210   1.411       .  A
C209        N214   1.439       .  S
C210        C211   1.404       .  A
C211        C212   1.403       .  A
C211       H1223   1.083   1_455  S
C212       N1224   1.438   1_455  S
N214        H217   1.045       .  S
N214        H218   1.045       .  S
H215       C1219   1.083       .  S
N216       C1220   1.438       .  S
N216        H219   1.046       .  S
N216        H220   1.046       .  S
C225        C226   1.413       .  A
C225        C230   1.404       .  A
C226        C227   1.406       .  A
C226       N1239   1.438   1_455  S
C227        C228   1.402       .  A
C227       H1240   1.084       .  S
C228        C229   1.408       .  A
C228        C233   1.478       .  S
C229        C230   1.404       .  A
C229        N234   1.438       .  S
C230        H235   1.083       .  S
N231       C1234   1.438       .  S
N231        H251   1.046       .  S
N231        H252   1.046       .  S
H232       C1235   1.084       .  S
C233        C236   1.401       .  A
C233       C1248   1.409       .  A
N234        H249   1.046       .  S
N234        H250   1.046       .  S
C236        C237   1.404       .  A
C236        H241   1.084       .  S
C237        C238   1.412       .  A
C237        N242   1.437       .  S
C238       C1247   1.402       .  A
C239        C240   1.404       .  A
C239       C1246   1.402       .  A
C239        H243   1.084       .  S
C240       C1241   1.409       .  A
C240        N244   1.438       .  S
N242        H245   1.045       .  S
N242        H246   1.045       .  S
N244        H247   1.046       .  S
N244        H248   1.046       .  S
C253        C254   1.408       .  A
C253        C258   1.404       .  A
C254        C255   1.400       .  A
C254        N259   1.431       .  S
C255        C256   1.399       .  A
C255        H260   1.084       .  S
C256        C257   1.409       .  A
C256        C261   1.476       .  S
C257        C258   1.408       .  A
C257       N1270   1.437   1_455  S
C258        H263   1.084   1_455  S
N259        H279   1.045       .  S
N259        H280   1.045       .  S
C261        C264   1.398       .  A
C261       C1276   1.406       .  A
N262       C1265   1.437       .  S
N262        H277   1.045       .  S
N262        H278   1.046       .  S
C264        C265   1.405       .  A
C264        H269   1.084       .  S
C265        C266   1.418       .  A
C265        N270   1.437       .  S
C266       C1275   1.409       .  A
C267        C268   1.405       .  A
C267       C1274   1.409       .  A
C267        H271   1.082       .  S
C268       C1269   1.406       .  A
C268        N272   1.438       .  S
N270        H273   1.046       .  S
N270        H274   1.045       .  S
N272        H275   1.046       .  S
N272        H276   1.045       .  S
C281        C286   1.406       .  A
C281        C786   1.415       .  A
C282        C283   1.408       .  A
C282        C785   1.415   1_545  A
C282        N287   1.437       .  S
C283        C788   1.402   1_545  A
C283        H288   1.084       .  S
C284        C285   1.408       .  A
C284        C787   1.402       .  A
C284        C289   1.484       .  S
C285        C286   1.406       .  A
C285        N290   1.438       .  S
C286        H291   1.083       .  S
N287        H307   1.046       .  S
N287        H308   1.046       .  S
C289        C292   1.403       .  A
C289        C800   1.410       .  A
N290        H305   1.046       .  S
N290        H306   1.046       .  S
C292        C293   1.408       .  A
C292        H297   1.084       .  S
C293        C294   1.410       .  A
C293        N298   1.437       .  S
C294        C799   1.401       .  A
C295        C296   1.406       .  A
C295        C798   1.401   1_545  A
C295        H299   1.084       .  S
C296        C793   1.410   1_545  A
C296        N300   1.437       .  S
N298        H301   1.046       .  S
N298        H302   1.045       .  S
N300        H303   1.046       .  S
N300        H304   1.046       .  S
C309        C310   1.416       .  A
C309        C314   1.407       .  A
C310        C311   1.407       .  A
C310        N315   1.437       .  S
C311        C312   1.400       .  A
C311        H316   1.084       .  S
C312        C313   1.406       .  A
C312        C317   1.478       .  S
C313        C314   1.406       .  A
C313        N318   1.438       .  S
C314        H319   1.083       .  S
N315        H335   1.046       .  S
N315        H336   1.046       .  S
C317        C320   1.401       .  A
C317        C828   1.407       .  A
N318        H333   1.046       .  S
N318        H334   1.046       .  S
C320        C321   1.402       .  A
C320        H325   1.084       .  S
C321        C322   1.419       .  A
C321        N326   1.438       .  S
C322        C827   1.404       .  A
C323        C324   1.404       .  A
C323        C826   1.404   1_545  A
C323        H327   1.084       .  S
C324        C821   1.407   1_545  A
C324        N328   1.437       .  S
N326        H329   1.045       .  S
N326        H330   1.043       .  S
N328        H331   1.046       .  S
N328        H332   1.045       .  S
C337        C342   1.403   1_565  A
C337        C842   1.415       .  A
C337        C668   1.475       .  S
C338        C339   1.399       .  A
C338        C841   1.415       .  A
C338        N343   1.439       .  S
C339        C844   1.402       .  A
C339        H344   1.084       .  S
C340        C341   1.408       .  A
C340        C843   1.402   1_545  A
C340        C345   1.476       .  S
C341        C342   1.403       .  A
C341        N346   1.437       .  S
C342        H347   1.084       .  S
N343        H363   1.043       .  S
N343        H364   1.045       .  S
C345        C348   1.400       .  A
C345        C856   1.408   1_545  A
N346        H361   1.046       .  S
N346        H362   1.045       .  S
C348        C349   1.405       .  A
C348        H353   1.084       .  S
C349        C350   1.414       .  A
C349        N354   1.437       .  S
C350        C351   1.405       .  A
C351        C856   1.403   1_545  A
C351        H859   1.083   1_545  S
C352        C849   1.408       .  A
C352        C855   1.403       .  A
C352        N356   1.438       .  S
N354        H357   1.046       .  S
N354        H358   1.046       .  S
H355        C855   1.083       .  S
N356        H359   1.046       .  S
N356        H360   1.046       .  S
C365        C370   1.403       .  A
C365        C870   1.408   1_565  A
C365        C666   1.482       .  S
C366        C367   1.402       .  A
C366        C869   1.408       .  A
C366        N371   1.432       .  S
C367        C872   1.403       .  A
C367        H372   1.084       .  S
C368        C369   1.410       .  A
C368        C871   1.403   1_565  A
C368        C373   1.479       .  S
C369        C370   1.404       .  A
C369        N374   1.437       .  S
C370        H375   1.084       .  S
N371        H391   1.045       .  S
N371        H392   1.046       .  S
C373        C376   1.400       .  A
C373        C884   1.407       .  A
N374        H389   1.045       .  S
N374        H390   1.046       .  S
C376        C377   1.406       .  A
C376        H381   1.084   1_565  S
C377        C378   1.417       .  A
C377        N382   1.437   1_565  S
C378        C883   1.407       .  A
C379        C380   1.405       .  A
C379        C882   1.407       .  A
C379        H383   1.083       .  S
C380        C877   1.407       .  A
C380        N384   1.438       .  S
N382        H385   1.046       .  S
N382        H386   1.045       .  S
N384        H387   1.046       .  S
N384        H388   1.046       .  S
C393        C394   1.415       .  A
C393        C398   1.407       .  A
C394        C395   1.406       .  A
C394        N399   1.437       .  S
C395        C396   1.400       .  A
C395        H400   1.084       .  S
C396        C397   1.407       .  A
C396        C401   1.477       .  S
C397        C398   1.406       .  A
C397        N402   1.438       .  S
C398        H403   1.083       .  S
N399        H419   1.046       .  S
N399        H420   1.046       .  S
C401        C404   1.401       .  A
C401        C408   1.408       .  A
N402        H417   1.046       .  S
N402        H418   1.046       .  S
C404        C405   1.404       .  A
C404        H409   1.084       .  S
C405        C406   1.410       .  A
C405        N410   1.432       .  S
C406        C407   1.405       .  A
C407        C408   1.404       .  A
C407        H411   1.083       .  S
C408        N412   1.437       .  S
N410        H413   1.046       .  S
N410        H414   1.045       .  S
N412        H415   1.046       .  S
N412        H416   1.045       .  S
C421        C422   1.418       .  A
C421        C426   1.404       .  A
C422        C423   1.401       .  A
C422        N427   1.437       .  S
C423        C424   1.401       .  A
C423        H428   1.084       .  S
C424        C425   1.407       .  A
C424        C429   1.477       .  S
C425        C426   1.403       .  A
C425        N430   1.437       .  S
C426        H431   1.084       .  S
N427        H447   1.042       .  S
N427        H448   1.046       .  S
C429        C432   1.399       .  A
C429        C436   1.405       .  A
N430        H445   1.046       .  S
N430        H446   1.046       .  S
C432        C433   1.406       .  A
C432        H437   1.084       .  S
C433        C434   1.419       .  A
C433        N438   1.437       .  S
C434        C435   1.409       .  A
C435        C436   1.406       .  A
C435        H439   1.082       .  S
C436        N440   1.438       .  S
N438        H441   1.046       .  S
N438        H442   1.045       .  S
N440        H443   1.046       .  S
N440        H444   1.045       .  S
C449        C450   1.408       .  A
C449        C454   1.403       .  A
C450        C451   1.400       .  A
C450        N455   1.432       .  S
C451        C452   1.400       .  A
C451        H456   1.084       .  S
C452        C453   1.408       .  A
C452        C457   1.471       .  S
C453        C454   1.403       .  A
C453        N458   1.437       .  S
C454        H459   1.084       .  S
N455        H475   1.046       .  S
N455        H476   1.045       .  S
C457        C460   1.397       .  A
C457        C464   1.405       .  A
N458        H473   1.046       .  S
N458        H474   1.046       .  S
C460        C461   1.403       .  A
C460        H465   1.084       .  S
C461        C462   1.418       .  A
C461        N466   1.437       .  S
C462        C463   1.408       .  A
C463        C464   1.405       .  A
C463        H467   1.083       .  S
C464        N468   1.438       .  S
N466        H469   1.046       .  S
N466        H470   1.045       .  S
N468        H471   1.046       .  S
N468        H472   1.046       .  S
C477        C478   1.417       .  A
C477        C482   1.409       .  A
C478        C479   1.405       .  A
C478        N483   1.437       .  S
C479        C480   1.399       .  A
C479        H484   1.084       .  S
C480        C481   1.406       .  A
C480        C485   1.479       .  S
C481        C482   1.406       .  A
C481        N486   1.438       .  S
C482        H487   1.082       .  S
N483        H503   1.045       .  S
N483        H504   1.046       .  S
C485        C488   1.401       .  A
C485        C492   1.408       .  A
N486        H501   1.046       .  S
N486        H502   1.046       .  S
C488        C489   1.406       .  A
C488        H493   1.084       .  S
C489        C490   1.415       .  A
C489        N494   1.438       .  S
C490        C491   1.404       .  A
C491        C492   1.403       .  A
C491        H495   1.083       .  S
C492        N496   1.437       .  S
N494        H497   1.046       .  S
N494        H498   1.045       .  S
N496        H499   1.046       .  S
N496        H500   1.045       .  S
N505        N506   1.320       .  A
N505        C509   1.344       .  A
N506        C507   1.345       .  A
N506       Cu512   2.073       .  S
C507        C508   1.389       .  A
C507        H510   1.081       .  S
C508        C509   1.390       .  A
C508        C981   1.492       .  S
C509        H511   1.080       .  S
Cu512       N515   2.072       .  S
Cu513      N1531   2.074   1_455  S
Cu514       N516   2.066       .  S
Cu514       N522   2.066       .  S
N515       N1020   1.322   1_455  A
N515        C519   1.343       .  A
N516       N1019   1.322   1_565  A
N516        C517   1.345       .  A
C517        H520   1.082       .  S
C518       C1527   1.381       .  A
C519       C1526   1.381   1_455  A
C519        H521   1.082       .  S
N522        N523   1.321       .  A
N522        C526   1.342       .  A
N523        C524   1.345       .  A
N523      Cu1521   2.074       .  S
C524        C525   1.388       .  A
C524        H527   1.082       .  S
C525        C526   1.387       .  A
C525        C966   1.487       .  S
C526        H528   1.080       .  S
N529        N530   1.322       .  A
N529        C533   1.345       .  A
N529      Cu1545   2.079       .  S
N530        C531   1.345       .  A
N530       Cu536   2.077       .  S
C531        C532   1.386       .  A
C531        H534   1.082       .  S
C532        C533   1.387       .  A
C532        C897   1.486       .  S
C533        H535   1.082       .  S
Cu536      N1547   2.077       .  S
Cu537      N1537   2.079   1_455  S
Cu538       N546   2.073       .  S
N539        N540   1.322       .  A
N539        C543   1.346       .  A
N539      Cu1544   2.077   1_455  S
N540        C541   1.345       .  A
C541        C542   1.382       .  A
C542        C543   1.383       .  A
C542        C590   1.470       .  S
C543       H1553   1.082   1_455  S
H545       C1551   1.082       .  S
N546        N547   1.321       .  A
N546        C550   1.344       .  A
N547        C548   1.345       .  A
C548        C549   1.390       .  A
C548        H551   1.081       .  S
C549        C550   1.389       .  A
C549        C938   1.493       .  S
C550        H552   1.080       .  S
N553        N554   1.321       .  A
N553       C1565   1.343   1_455  A
N553       Cu561   2.070       .  S
N554       C1563   1.344   1_455  A
N554       Cu560   2.069       .  S
C555       N1562   1.344       .  A
C555        C556   1.386       .  A
C555        H558   1.082       .  S
C556        C557   1.385       .  A
C556        C854   1.481       .  S
C557       N1561   1.343       .  A
C557       H1567   1.082       .  S
H559       C1565   1.082       .  S
Cu560       N563   2.069       .  S
Cu561       N571   2.070       .  S
Cu562       N564   2.073       .  S
Cu562       N570   2.073       .  S
N563        N564   1.323       .  A
N563        C567   1.344       .  A
N564        C565   1.345       .  A
C565        C566   1.383       .  A
C565        H568   1.082       .  S
C566        C567   1.381       .  A
C566        C638   1.467       .  S
C567        H569   1.082       .  S
N570        N571   1.321       .  A
N570        C574   1.344       .  A
N571        C572   1.344       .  A
C572        C573   1.388       .  A
C572        H575   1.082       .  S
C573        C574   1.388       .  A
C573        C882   1.489       .  S
C574        H576   1.080       .  S
N577        N578   1.322       .  A
N577        C581   1.344       .  A
N577       Cu585   2.078       .  S
N578        C579   1.347       .  A
N578       Cu584   2.082       .  S
C579        C580   1.389       .  A
C579        H582   1.081       .  S
C580        C581   1.386       .  A
C580        C813   1.489       .  S
C581        H583   1.082       .  S
Cu584       N587   2.081       .  S
Cu585      N1603   2.078   1_455  S
Cu586      N1596   2.076       .  S
Cu586       N594   2.076       .  S
N587        N588   1.323       .  A
N587        C591   1.346       .  A
N588        C589   1.346       .  A
N588      Cu1594   2.076   1_455  S
C589        C590   1.382       .  A
C589       H1600   1.082   1_455  S
C590        C591   1.383       .  A
C591        H593   1.082       .  S
H592       C1597   1.082       .  S
N594        N595   1.321       .  A
N594        C598   1.345       .  A
N595        C596   1.346       .  A
N595      Cu1593   2.078       .  S
C596        C597   1.388       .  A
C596        H599   1.081       .  S
C597        C598   1.386       .  A
C597        C785   1.487       .  S
C598        H600   1.082       .  S
N601        N602   1.321       .  A
N601        C605   1.344       .  A
N601       Cu609   2.069       .  S
N602        C603   1.344       .  A
N602       Cu608   2.068       .  S
C603        C604   1.384       .  A
C603        H606   1.082       .  S
C604        C605   1.385       .  A
C604        C729   1.479       .  S
C605        H607   1.082       .  S
Cu608      N1619   2.068       .  S
Cu610      N1620   2.073       .  S
Cu610       N618   2.074   1_655  S
N611        C615   1.343   1_554  A
N611      Cu1616   2.068       .  S
N612        C613   1.345   1_554  A
N612      Cu1618   2.073       .  S
C613        C614   1.382       .  A
C613        H616   1.082       .  S
C615        H617   1.082       .  S
N618        N619   1.320       .  A
N618        C622   1.344       .  A
N619        C620   1.343       .  A
C620        C621   1.388       .  A
C620        H623   1.081       .  S
C621        C622   1.390       .  A
C621        C770   1.491       .  S
C622        H624   1.080   1_455  S
N625        N626   1.319       .  A
N625        C629   1.345       .  A
N626        C627   1.341       .  A
N626       Cu632   2.067       .  S
C627        C628   1.389       .  A
C627        H630   1.081       .  S
C628        C629   1.391       .  A
C628        C701   1.493       .  S
C629        H631   1.080       .  S
Cu633       N643   2.072       .  S
Cu634       N636   2.075       .  S
Cu634       N642   2.076       .  S
N635        N636   1.322       .  A
N635        C639   1.344       .  A
N636        C637   1.345       .  A
C637        C638   1.383       .  A
C637        H640   1.082       .  S
C638        C639   1.381       .  A
N642        N643   1.323       .  A
N642        C646   1.344       .  A
N643        C644   1.344       .  A
C644        C645   1.384       .  A
C644        H647   1.082       .  S
C645        C646   1.385       .  A
C645        C686   1.481       .  S
C646        H648   1.082       .  S
C649        C650   1.415       .  A
C649        C654   1.402       .  A
C649        C757   1.484       .  S
C650        C651   1.402       .  A
C650        C714   1.484       .  S
C651        C652   1.400       .  A
C651        H656   1.084       .  S
C652        C653   1.414       .  A
C652        C673   1.482       .  S
C653        C654   1.404       .  A
C653        C742   1.483       .  S
C654        H655   1.084       .  S
C657        C658   1.418       .  A
C657        C662   1.403       .  A
C657        C925   1.482       .  S
C658        C659   1.401       .  A
C658        C994   1.489       .  S
C659        C660   1.401       .  A
C659        H664   1.084       .  S
C660        C661   1.415       .  A
C660        C953   1.478       .  S
C661        C662   1.402       .  A
C661        C910   1.489       .  S
C662        H663   1.084       .  S
C665        C666   1.417       .  A
C665        C670   1.405       .  A
C665        C826   1.485       .  S
C667        H672   1.085       .  S
C668        C669   1.410       .  A
C669        C670   1.401       .  A
C669        C798   1.483       .  S
C670        H671   1.084       .  S
C673        C674   1.409       .  A
C673        C678   1.403       .  A
C674        C675   1.402       .  A
C674       N1687   1.437   1_455  S
C675        C676   1.403       .  A
C675       H1688   1.084       .  S
C676        C677   1.411       .  A
C676        C681   1.482       .  S
C677        C678   1.406       .  A
C677        N682   1.437       .  S
C678        H683   1.084       .  S
N679       C1682   1.437       .  S
N679        H699   1.045       .  S
N679        H700   1.046       .  S
H680       C1683   1.084       .  S
C681        C684   1.402       .  A
C681        C688   1.410       .  A
N682        H697   1.046       .  S
N682        H698   1.045       .  S
C684        C685   1.407       .  A
C684        H689   1.084       .  S
C685        C686   1.414       .  A
C685        N690   1.437       .  S
C686        C687   1.403       .  A
C687        C688   1.403       .  A
C687        H691   1.083       .  S
C688        N692   1.438       .  S
N690        H693   1.046       .  S
N690        H694   1.046       .  S
N692       H1703   1.046       .  S
N692       H1704   1.046       .  S
H695       N1700   1.046       .  S
H696       N1700   1.046       .  S
C701        C702   1.419       .  A
C701        C706   1.408       .  A
C702        C703   1.406       .  A
C702        N707   1.436       .  S
C703        C704   1.401       .  A
C703        H708   1.084       .  S
C704        C705   1.407       .  A
C704        C709   1.481       .  S
C705        C706   1.403       .  A
C705        N710   1.438       .  S
C706        H711   1.082       .  S
N707        H727   1.045       .  S
N707        H728   1.046       .  S
C709        C712   1.403       .  A
C709        C716   1.410       .  A
N710        H725   1.046       .  S
N710        H726   1.046       .  S
C712        C713   1.403       .  A
C712        H717   1.084       .  S
C713        C714   1.411       .  A
C713        N718   1.439       .  S
C714        C715   1.404       .  A
C715        C716   1.403       .  A
C715       H1727   1.083   1_455  S
C716       N1728   1.438   1_455  S
N718        H721   1.045       .  S
N718        H722   1.045       .  S
H719       C1723   1.083       .  S
N720       C1724   1.438       .  S
N720        H723   1.046       .  S
N720        H724   1.046       .  S
C729        C730   1.413       .  A
C729        C734   1.404       .  A
C730        C731   1.406       .  A
C730       N1743   1.438   1_455  S
C731        C732   1.402       .  A
C731       H1744   1.084       .  S
C732        C733   1.408       .  A
C732        C737   1.478       .  S
C733        C734   1.404       .  A
C733        N738   1.438       .  S
C734        H739   1.083       .  S
N735       C1738   1.438       .  S
N735        H755   1.046       .  S
N735        H756   1.046       .  S
H736       C1739   1.084       .  S
C737        C740   1.401       .  A
C737       C1752   1.409       .  A
N738        H753   1.046       .  S
N738        H754   1.046       .  S
C740        C741   1.404       .  A
C740        H745   1.084       .  S
C741        C742   1.412       .  A
C741        N746   1.437       .  S
C742       C1751   1.402       .  A
C743       C1750   1.402       .  A
C743        C744   1.404       .  A
C743        H747   1.084       .  S
C744       C1745   1.409       .  A
C744        N748   1.438       .  S
N746        H749   1.045       .  S
N746        H750   1.045       .  S
N748        H751   1.046       .  S
N748        H752   1.046       .  S
C757        C758   1.408       .  A
C757        C762   1.404       .  A
C758        C759   1.400       .  A
C758        N763   1.431       .  S
C759        C760   1.399       .  A
C759        H764   1.084       .  S
C760        C761   1.409       .  A
C760        C765   1.476       .  S
C761        C762   1.408       .  A
C761       N1774   1.437   1_455  S
C762        H767   1.084   1_455  S
N763        H783   1.045       .  S
N763        H784   1.045       .  S
C765        C768   1.398       .  A
C765       C1780   1.406       .  A
N766       C1769   1.437       .  S
N766        H781   1.045       .  S
N766        H782   1.046       .  S
C768        C769   1.405       .  A
C768        H773   1.084       .  S
C769        C770   1.418       .  A
C769        N774   1.437       .  S
C770       C1779   1.409       .  A
C771       C1778   1.409       .  A
C771        C772   1.405       .  A
C771        H775   1.082       .  S
C772       C1773   1.406       .  A
C772        N776   1.438       .  S
N774        H777   1.046       .  S
N774        H778   1.045       .  S
N776        H779   1.046       .  S
N776        H780   1.045       .  S
C785        C790   1.406       .  A
C786        C787   1.408       .  A
C786        N791   1.437       .  S
C787        H792   1.084       .  S
C788        C789   1.408       .  A
C788        C793   1.484       .  S
C789        C790   1.406       .  A
C789        N794   1.438       .  S
C790        H795   1.083       .  S
N791        H811   1.046       .  S
N791        H812   1.046       .  S
C793        C796   1.403       .  A
N794        H809   1.046       .  S
N794        H810   1.046       .  S
C796        C797   1.408       .  A
C796        H801   1.084       .  S
C797        C798   1.410       .  A
C797        N802   1.437       .  S
C799        C800   1.406       .  A
C799        H803   1.084       .  S
C800        N804   1.437       .  S
N802        H805   1.046       .  S
N802        H806   1.045       .  S
N804        H807   1.046       .  S
N804        H808   1.046       .  S
C813        C814   1.416       .  A
C813        C818   1.407       .  A
C814        C815   1.407       .  A
C814        N819   1.437       .  S
C815        C816   1.400       .  A
C815        H820   1.084       .  S
C816        C817   1.406       .  A
C816        C821   1.478       .  S
C817        C818   1.406       .  A
C817        N822   1.438   1_565  S
C818        H823   1.083   1_565  S
N819        H839   1.046       .  S
N819        H840   1.046       .  S
C821        C824   1.401       .  A
N822        H837   1.046       .  S
N822        H838   1.046       .  S
C824        C825   1.402       .  A
C824        H829   1.084       .  S
C825        C826   1.419       .  A
C825        N830   1.438       .  S
C827        C828   1.404       .  A
C827        H831   1.084       .  S
C828        N832   1.437       .  S
N830        H833   1.045       .  S
N830        H834   1.043       .  S
N832        H835   1.046       .  S
N832        H836   1.045       .  S
C841        C846   1.403       .  A
C842        C843   1.399       .  A
C842        N847   1.439       .  S
C843        H848   1.084       .  S
C844        C845   1.408       .  A
C844        C849   1.476       .  S
C845        C846   1.403       .  A
C845        N850   1.437       .  S
C846        H851   1.084       .  S
N847        H867   1.043       .  S
N847        H868   1.045       .  S
C849        C852   1.400       .  A
N850        H865   1.046       .  S
N850        H866   1.045       .  S
C852        C853   1.405       .  A
C852        H857   1.084       .  S
C853        C854   1.414       .  A
C853        N858   1.437       .  S
C854        C855   1.405       .  A
C856        N860   1.438       .  S
N858        H861   1.046       .  S
N858        H862   1.046       .  S
N860        H863   1.046       .  S
N860        H864   1.046       .  S
C869        C874   1.403       .  A
C870        C871   1.402       .  A
C870        N875   1.432       .  S
C871        H876   1.084       .  S
C872        C873   1.410       .  A
C872        C877   1.479       .  S
C873        C874   1.404       .  A
C873        N878   1.437       .  S
C874        H879   1.084       .  S
N875        H895   1.045       .  S
N875        H896   1.046       .  S
C877        C880   1.400       .  A
N878        H893   1.045       .  S
N878        H894   1.046       .  S
C880        C881   1.406       .  A
C880        H885   1.084       .  S
C881        C882   1.417       .  A
C881        N886   1.437       .  S
C883        C884   1.405       .  A
C883        H887   1.083       .  S
C884        N888   1.438       .  S
N886        H889   1.046       .  S
N886        H890   1.045       .  S
N888        H891   1.046       .  S
N888        H892   1.046       .  S
C897        C898   1.415       .  A
C897        C902   1.407       .  A
C898        C899   1.406       .  A
C898        N903   1.437       .  S
C899        C900   1.400       .  A
C899        H904   1.084       .  S
C900        C901   1.407       .  A
C900        C905   1.477       .  S
C901        C902   1.406       .  A
C901        N906   1.438       .  S
C902        H907   1.083       .  S
N903        H923   1.046       .  S
N903        H924   1.046       .  S
C905        C908   1.401       .  A
C905        C912   1.408       .  A
N906        H921   1.046       .  S
N906        H922   1.046       .  S
C908        C909   1.404       .  A
C908        H913   1.084       .  S
C909        C910   1.410       .  A
C909        N914   1.432       .  S
C910        C911   1.405       .  A
C911        C912   1.404       .  A
C911        H915   1.083       .  S
C912        N916   1.437       .  S
N914        H917   1.046       .  S
N914        H918   1.045       .  S
N916        H919   1.046       .  S
N916        H920   1.045       .  S
C925        C926   1.418       .  A
C925        C930   1.404       .  A
C926        C927   1.401       .  A
C926        N931   1.437       .  S
C927        C928   1.401       .  A
C927        H932   1.084       .  S
C928        C929   1.407       .  A
C928        C933   1.477       .  S
C929        C930   1.403       .  A
C929        N934   1.437       .  S
C930        H935   1.084       .  S
N931        H951   1.042       .  S
N931        H952   1.046       .  S
C933        C936   1.399       .  A
C933        C940   1.405       .  A
N934        H949   1.046       .  S
N934        H950   1.046       .  S
C936        C937   1.406       .  A
C936        H941   1.084       .  S
C937        C938   1.419       .  A
C937        N942   1.437       .  S
C938        C939   1.409       .  A
C939        C940   1.406       .  A
C939        H943   1.082       .  S
C940        N944   1.438       .  S
N942        H945   1.046       .  S
N942        H946   1.045       .  S
N944        H947   1.046       .  S
N944        H948   1.045       .  S
C953        C954   1.408       .  A
C953        C958   1.403       .  A
C954        C955   1.400       .  A
C954        N959   1.432       .  S
C955        C956   1.400       .  A
C955        H960   1.084       .  S
C956        C957   1.408       .  A
C956        C961   1.471       .  S
C957        C958   1.403       .  A
C957        N962   1.437       .  S
C958        H963   1.084       .  S
N959        H979   1.046       .  S
N959        H980   1.045       .  S
C961        C964   1.397       .  A
C961        C968   1.405       .  A
N962        H977   1.046       .  S
N962        H978   1.046       .  S
C964        C965   1.403       .  A
C964        H969   1.084       .  S
C965        C966   1.418       .  A
C965        N970   1.437       .  S
C966        C967   1.408       .  A
C967        C968   1.405       .  A
C967        H971   1.083       .  S
C968        N972   1.438       .  S
N970        H973   1.046       .  S
N970        H974   1.045       .  S
N972        H975   1.046       .  S
N972        H976   1.046       .  S
C981        C982   1.417       .  A
C981        C986   1.409       .  A
C982        C983   1.405       .  A
C982        N987   1.437       .  S
C983        C984   1.399       .  A
C983        H988   1.084       .  S
C984        C985   1.406       .  A
C984        C989   1.479       .  S
C985        C986   1.406       .  A
C985        N990   1.438       .  S
C986        H991   1.082       .  S
N987       H1007   1.045       .  S
N987       H1008   1.046       .  S
C989        C992   1.401       .  A
C989        C996   1.408       .  A
N990       H1005   1.046       .  S
N990       H1006   1.046       .  S
C992        C993   1.406       .  A
C992        H997   1.084       .  S
C993        C994   1.415       .  A
C993        N998   1.438       .  S
C994        C995   1.404       .  A
C995        C996   1.403       .  A
C995        H999   1.083       .  S
C996       N1000   1.437       .  S
N998       H1001   1.046       .  S
N998       H1002   1.045       .  S
N1000      H1003   1.046       .  S
N1000      H1004   1.045       .  S
N1009      N1010   1.320       .  A
N1009      C1013   1.344       .  A
N1009     Cu1521   2.074   1_545  S
N1010      C1011   1.345       .  A
N1010     Cu1016   2.073       .  S
C1011      C1012   1.389       .  A
C1011      H1014   1.081       .  S
C1012      C1013   1.390       .  A
C1012      C1485   1.492       .  S
C1013      H1015   1.080       .  S
Cu1016     N1019   2.072       .  S
Cu1017     N1513   2.074       .  S
Cu1018     N1020   2.066       .  S
Cu1018     N1026   2.066       .  S
N1019      C1023   1.343       .  A
N1020      C1021   1.345       .  A
C1021      C1526   1.381       .  A
C1021      H1024   1.082       .  S
C1022      C1525   1.381       .  A
C1022      C1622   1.466       .  S
C1023      H1025   1.082       .  S
N1026      N1027   1.321       .  A
N1026      C1030   1.342       .  A
N1027      C1028   1.345       .  A
C1028      C1029   1.388       .  A
C1028      H1031   1.082       .  S
C1029      C1030   1.387       .  A
C1029      C1470   1.487       .  S
C1030      H1032   1.080       .  S
N1033      N1034   1.322       .  A
N1033      C1037   1.345       .  A
N1034      C1035   1.345       .  A
N1034     Cu1040   2.077       .  S
C1035      C1036   1.386       .  A
C1035      H1038   1.082       .  S
C1036      C1037   1.387       .  A
C1036      C1401   1.486       .  S
C1037      H1039   1.082       .  S
Cu1041     N1555   2.079       .  S
Cu1042     N1548   2.072   1_545  S
Cu1042     N1050   2.073       .  S
N1043      N1044   1.322       .  A
N1043      C1047   1.346       .  A
N1044      C1045   1.345       .  A
N1044     Cu1546   2.072       .  S
C1045      C1046   1.382       .  A
C1045      H1552   1.082       .  S
C1046      C1047   1.383       .  A
C1046      C1094   1.470       .  S
H1048      C1549   1.082   1_545  S
N1050      N1051   1.321       .  A
N1050      C1054   1.344       .  A
N1051      C1052   1.345       .  A
N1051     Cu1545   2.079   1_545  S
C1052      C1053   1.390       .  A
C1052      H1055   1.081       .  S
C1053      C1054   1.389       .  A
C1053      C1442   1.493       .  S
C1054      H1056   1.080       .  S
N1057      N1058   1.321       .  A
N1057     Cu1065   2.070       .  S
N1058     Cu1064   2.069       .  S
C1059      C1060   1.386       .  A
C1059      H1062   1.082       .  S
C1060      C1061   1.385       .  A
C1060      C1358   1.481       .  S
Cu1064     N1067   2.069       .  S
Cu1065     N1075   2.070       .  S
Cu1066     N1068   2.073   1_565  S
Cu1066     N1074   2.073       .  S
N1067      N1068   1.323       .  A
N1067      C1071   1.344       .  A
N1068      C1069   1.345   1_545  A
C1069      C1070   1.383   1_565  A
C1069      H1072   1.082       .  S
C1070      C1071   1.381       .  A
C1070      C1142   1.467       .  S
C1071      H1073   1.082       .  S
N1074      N1075   1.321   1_565  A
N1074      C1078   1.344       .  A
N1075      C1076   1.344       .  A
C1076      C1077   1.388   1_545  A
C1076      H1079   1.082       .  S
C1077      C1078   1.388       .  A
C1077      C1386   1.489       .  S
C1078      H1080   1.080       .  S
N1081      N1082   1.322       .  A
N1081      C1085   1.344       .  A
N1081     Cu1089   2.078       .  S
N1082      C1083   1.347       .  A
N1082     Cu1088   2.082       .  S
C1083      C1084   1.389       .  A
C1083      H1086   1.081       .  S
C1084      C1085   1.386       .  A
C1084      C1317   1.489       .  S
C1085      H1087   1.082       .  S
Cu1088     N1091   2.081       .  S
Cu1090     N1098   2.076       .  S
N1091      N1092   1.323       .  A
N1091      C1095   1.346       .  A
N1092      C1093   1.346       .  A
C1093      C1094   1.382       .  A
C1094      C1095   1.383       .  A
C1095      H1097   1.082       .  S
N1098      N1099   1.321       .  A
N1098      C1102   1.345       .  A
N1099      C1100   1.346       .  A
C1100      C1101   1.388       .  A
C1100      H1103   1.081       .  S
C1101      C1102   1.386       .  A
C1101      C1289   1.487       .  S
C1102      H1104   1.082       .  S
N1105      N1106   1.321       .  A
N1105      C1109   1.344       .  A
N1105     Cu1113   2.069       .  S
N1106      C1107   1.344       .  A
N1106     Cu1112   2.068       .  S
C1107      C1108   1.384       .  A
C1107      H1110   1.082       .  S
C1108      C1109   1.385       .  A
C1108      C1233   1.479       .  S
C1109      H1111   1.082       .  S
Cu1113     N1627   2.069   1_545  S
Cu1114     N1122   2.074       .  S
N1115      N1620   1.323   1_445  A
N1115      C1119   1.343   1_554  A
N1116      N1619   1.323   1_655  A
N1116      C1117   1.345   1_554  A
C1117      C1118   1.382       .  A
C1117      H1120   1.082       .  S
C1118      C1623   1.380   1_655  A
C1118      C1526   1.466       .  S
C1119      C1622   1.380   1_445  A
C1119      H1121   1.082       .  S
N1122      N1123   1.320       .  A
N1122      C1126   1.344       .  A
N1123      C1124   1.343       .  A
N1123     Cu1617   2.069       .  S
C1124      C1125   1.388       .  A
C1124      H1127   1.081       .  S
C1125      C1126   1.390       .  A
C1125      C1274   1.491       .  S
C1126      H1128   1.080       .  S
N1129      N1130   1.319       .  A
N1129      C1133   1.345       .  A
N1129     Cu1641   2.071       .  S
N1130      C1131   1.341       .  A
N1130     Cu1136   2.067       .  S
C1131      C1132   1.389       .  A
C1131      H1134   1.081       .  S
C1132      C1133   1.391       .  A
C1132      C1205   1.493       .  S
C1133      H1135   1.080       .  S
Cu1136     N1643   2.067       .  S
Cu1137     N1633   2.071   1_545  S
Cu1137     N1147   2.072       .  S
Cu1138     N1140   2.075       .  S
Cu1138     N1146   2.076       .  S
N1139      N1140   1.322       .  A
N1139      C1143   1.344   1_545  A
N1139     Cu1640   2.067   1_545  S
N1140      C1141   1.345       .  A
C1141      C1142   1.383       .  A
C1141      H1144   1.082       .  S
C1142      C1143   1.381   1_545  A
C1143      H1649   1.082       .  S
H1145      C1647   1.082       .  S
N1146      N1147   1.323       .  A
N1146      C1150   1.344       .  A
N1147      C1148   1.344       .  A
C1148      C1149   1.384       .  A
C1148      H1151   1.082       .  S
C1149      C1150   1.385       .  A
C1149      C1190   1.481       .  S
C1150      H1152   1.082       .  S
C1153      C1154   1.415       .  A
C1153      C1158   1.402       .  A
C1153      C1261   1.484       .  S
C1154      C1155   1.402       .  A
C1154      C1218   1.484       .  S
C1155      C1156   1.400       .  A
C1155      H1160   1.084       .  S
C1156      C1157   1.414       .  A
C1156      C1177   1.482       .  S
C1157      C1158   1.404       .  A
C1157      C1246   1.483       .  S
C1158      H1159   1.084       .  S
C1161      C1162   1.418       .  A
C1161      C1166   1.403       .  A
C1161      C1429   1.482       .  S
C1162      C1163   1.401       .  A
C1162      C1498   1.489       .  S
C1163      C1164   1.401       .  A
C1163      H1168   1.084       .  S
C1164      C1165   1.415       .  A
C1164      C1457   1.478       .  S
C1165      C1166   1.402       .  A
C1165      C1414   1.489       .  S
C1166      H1167   1.084       .  S
C1169      C1170   1.417       .  A
C1169      C1174   1.405       .  A
C1169      C1330   1.485       .  S
C1170      C1675   1.401       .  A
C1170      C1877   1.482       .  S
C1171      C1674   1.401       .  A
C1171      C1676   1.400       .  A
C1171      H1176   1.085       .  S
C1172      C1675   1.400       .  A
C1172      C1173   1.410       .  A
C1172      C1849   1.475       .  S
C1173      C1174   1.401       .  A
C1173      C1302   1.483       .  S
C1174      H1175   1.084       .  S
C1177      C1178   1.409       .  A
C1177      C1182   1.403       .  A
C1178      C1179   1.402       .  A
C1179      C1180   1.403       .  A
C1180      C1181   1.411       .  A
C1180      C1185   1.482       .  S
C1181      C1182   1.406       .  A
C1181      N1186   1.437       .  S
C1182      H1187   1.084       .  S
N1183      H1203   1.045       .  S
N1183      H1204   1.046       .  S
C1185      C1188   1.402       .  A
C1185      C1192   1.410       .  A
N1186      H1201   1.046       .  S
N1186      H1202   1.045       .  S
C1188      C1189   1.407       .  A
C1188      H1193   1.084       .  S
C1189      C1190   1.414       .  A
C1189      N1194   1.437       .  S
C1190      C1191   1.403       .  A
C1191      C1192   1.403       .  A
C1191      H1195   1.083       .  S
C1192      N1196   1.438       .  S
N1194      H1197   1.046       .  S
N1194      H1198   1.046       .  S
C1205      C1206   1.419       .  A
C1205      C1210   1.408       .  A
C1206      C1207   1.406       .  A
C1206      N1211   1.436       .  S
C1207      C1208   1.401       .  A
C1207      H1212   1.084       .  S
C1208      C1209   1.407       .  A
C1208      C1213   1.481       .  S
C1209      C1210   1.403       .  A
C1209      N1214   1.438       .  S
C1210      H1215   1.082       .  S
N1211      H1231   1.045       .  S
N1211      H1232   1.046       .  S
C1213      C1216   1.403       .  A
C1213      C1220   1.410       .  A
N1214      H1229   1.046       .  S
N1214      H1230   1.046       .  S
C1216      C1217   1.403       .  A
C1216      H1221   1.084       .  S
C1217      C1218   1.411       .  A
C1217      N1222   1.439       .  S
C1218      C1219   1.404       .  A
C1219      C1220   1.403       .  A
N1222      H1225   1.045       .  S
N1222      H1226   1.045       .  S
N1224      H1227   1.046       .  S
N1224      H1228   1.046       .  S
C1233      C1234   1.413       .  A
C1233      C1238   1.404       .  A
C1234      C1235   1.406       .  A
C1235      C1236   1.402       .  A
C1236      C1237   1.408       .  A
C1236      C1241   1.478       .  S
C1237      C1238   1.404       .  A
C1237      N1242   1.438       .  S
C1238      H1243   1.083       .  S
N1239      H1259   1.046       .  S
N1239      H1260   1.046       .  S
C1241      C1244   1.401       .  A
N1242      H1257   1.046       .  S
N1242      H1258   1.046       .  S
C1244      C1245   1.404       .  A
C1244      H1249   1.084       .  S
C1245      C1246   1.412       .  A
C1245      N1250   1.437       .  S
C1247      C1248   1.404       .  A
C1247      H1251   1.084   1_455  S
C1248      N1252   1.438   1_455  S
N1250      H1253   1.045       .  S
N1250      H1254   1.045       .  S
N1252      H1255   1.046       .  S
N1252      H1256   1.046       .  S
C1261      C1262   1.408       .  A
C1261      C1266   1.404       .  A
C1262      C1263   1.400       .  A
C1262      N1267   1.431       .  S
C1263      C1264   1.399       .  A
C1263      H1268   1.084       .  S
C1264      C1265   1.409       .  A
C1264      C1269   1.476       .  S
C1265      C1266   1.408       .  A
C1266      H1271   1.084       .  S
N1267      H1287   1.045       .  S
N1267      H1288   1.045       .  S
C1269      C1272   1.398       .  A
N1270      H1285   1.045       .  S
N1270      H1286   1.046       .  S
C1272      C1273   1.405       .  A
C1272      H1277   1.084       .  S
C1273      C1274   1.418       .  A
C1273      N1278   1.437       .  S
C1275      C1276   1.405       .  A
C1275      H1279   1.082       .  S
C1276      N1280   1.438       .  S
N1278      H1281   1.046       .  S
N1278      H1282   1.045       .  S
N1280      H1283   1.046       .  S
N1280      H1284   1.045       .  S
C1289      C1794   1.415       .  A
C1289      C1294   1.406       .  A
C1290      C1793   1.415   1_545  A
C1290      C1291   1.408       .  A
C1290      N1295   1.437       .  S
C1291      C1796   1.402   1_545  A
C1291      H1296   1.084       .  S
C1292      C1795   1.402       .  A
C1292      C1293   1.408       .  A
C1292      C1297   1.484       .  S
C1293      C1294   1.406       .  A
C1293      N1298   1.438       .  S
C1294      H1299   1.083       .  S
N1295      H1315   1.046       .  S
N1295      H1316   1.046       .  S
C1297      C1300   1.403       .  A
C1297      C1808   1.410       .  A
N1298      H1313   1.046       .  S
N1298      H1314   1.046       .  S
C1300      C1301   1.408       .  A
C1300      H1305   1.084       .  S
C1301      C1302   1.410       .  A
C1301      N1306   1.437       .  S
C1302      C1807   1.401       .  A
C1303      C1806   1.401   1_545  A
C1303      C1304   1.406       .  A
C1303      H1307   1.084       .  S
C1304      C1801   1.410   1_545  A
C1304      N1308   1.437       .  S
N1306      H1309   1.046       .  S
N1306      H1310   1.045       .  S
N1308      H1311   1.046       .  S
N1308      H1312   1.046       .  S
C1317      C1318   1.416       .  A
C1317      C1322   1.407       .  A
C1318      C1319   1.407       .  A
C1318      N1323   1.437       .  S
C1319      C1320   1.400       .  A
C1319      H1324   1.084       .  S
C1320      C1321   1.406       .  A
C1320      C1325   1.478       .  S
C1321      C1322   1.406       .  A
C1321      N1326   1.438       .  S
C1322      H1327   1.083       .  S
N1323      H1343   1.046       .  S
N1323      H1344   1.046       .  S
C1325      C1328   1.401       .  A
C1325      C1836   1.407       .  A
N1326      H1341   1.046       .  S
N1326      H1342   1.046       .  S
C1328      C1329   1.402       .  A
C1328      H1333   1.084       .  S
C1329      C1330   1.419       .  A
C1329      N1334   1.438       .  S
C1330      C1835   1.404       .  A
C1331      C1834   1.404   1_545  A
C1331      C1332   1.404       .  A
C1331      H1335   1.084       .  S
C1332      C1829   1.407   1_545  A
C1332      N1336   1.437       .  S
N1334      H1337   1.045       .  S
N1334      H1338   1.043       .  S
N1336      H1339   1.046       .  S
N1336      H1340   1.045       .  S
C1345      C1850   1.415       .  A
C1345      C1350   1.403   1_565  A
C1345      C1676   1.475       .  S
C1346      C1849   1.415       .  A
C1346      C1347   1.399       .  A
C1346      N1351   1.439       .  S
C1347      C1852   1.402       .  A
C1347      H1352   1.084       .  S
C1348      C1851   1.402   1_545  A
C1348      C1349   1.408       .  A
C1348      C1353   1.476       .  S
C1349      C1350   1.403       .  A
C1349      N1354   1.437       .  S
C1350      H1355   1.084       .  S
N1351      H1371   1.043       .  S
N1351      H1372   1.045       .  S
C1353      C1356   1.400       .  A
C1353      C1864   1.408   1_545  A
N1354      H1369   1.046       .  S
N1354      H1370   1.045       .  S
C1356      C1357   1.405       .  A
C1356      H1361   1.084       .  S
C1357      C1358   1.414       .  A
C1357      N1362   1.437       .  S
C1358      C1359   1.405       .  A
C1359      C1864   1.403   1_545  A
C1359      H1867   1.083   1_545  S
C1360      C1857   1.408       .  A
C1360      C1863   1.403       .  A
C1360      N1364   1.438       .  S
N1362      H1365   1.046       .  S
N1362      H1366   1.046       .  S
H1363      C1863   1.083       .  S
N1364      H1367   1.046       .  S
N1364      H1368   1.046       .  S
C1373      C1878   1.408   1_565  A
C1373      C1378   1.403       .  A
C1373      C1674   1.482       .  S
C1374      C1877   1.408       .  A
C1374      C1375   1.402       .  A
C1374      N1379   1.432       .  S
C1375      C1880   1.403       .  A
C1375      H1380   1.084       .  S
C1376      C1879   1.403   1_565  A
C1376      C1377   1.410       .  A
C1376      C1381   1.479       .  S
C1377      C1378   1.404       .  A
C1377      N1382   1.437       .  S
C1378      H1383   1.084       .  S
N1379      H1399   1.045       .  S
N1379      H1400   1.046       .  S
C1381      C1384   1.400       .  A
C1381      C1892   1.407       .  A
N1382      H1397   1.045       .  S
N1382      H1398   1.046       .  S
C1384      C1385   1.406       .  A
C1384      H1389   1.084   1_565  S
C1385      C1386   1.417       .  A
C1385      N1390   1.437   1_565  S
C1386      C1891   1.407       .  A
C1387      C1890   1.407       .  A
C1387      C1388   1.405       .  A
C1387      H1391   1.083       .  S
C1388      C1885   1.407       .  A
C1388      N1392   1.438       .  S
N1390      H1393   1.046       .  S
N1390      H1394   1.045       .  S
N1392      H1395   1.046       .  S
N1392      H1396   1.046       .  S
C1401      C1402   1.415       .  A
C1401      C1406   1.407       .  A
C1402      C1403   1.406       .  A
C1402      N1407   1.437       .  S
C1403      C1404   1.400       .  A
C1403      H1408   1.084       .  S
C1404      C1405   1.407       .  A
C1404      C1409   1.477       .  S
C1405      C1406   1.406       .  A
C1405      N1410   1.438       .  S
C1406      H1411   1.083       .  S
N1407      H1427   1.046       .  S
N1407      H1428   1.046       .  S
C1409      C1412   1.401       .  A
C1409      C1416   1.408       .  A
N1410      H1425   1.046       .  S
N1410      H1426   1.046       .  S
C1412      C1413   1.404       .  A
C1412      H1417   1.084       .  S
C1413      C1414   1.410       .  A
C1413      N1418   1.432       .  S
C1414      C1415   1.405       .  A
C1415      C1416   1.404       .  A
C1415      H1419   1.083       .  S
C1416      N1420   1.437       .  S
N1418      H1421   1.046       .  S
N1418      H1422   1.045       .  S
N1420      H1423   1.046       .  S
N1420      H1424   1.045       .  S
C1429      C1430   1.418       .  A
C1429      C1434   1.404       .  A
C1430      C1431   1.401       .  A
C1430      N1435   1.437       .  S
C1431      C1432   1.401       .  A
C1431      H1436   1.084       .  S
C1432      C1433   1.407       .  A
C1432      C1437   1.477       .  S
C1433      C1434   1.403       .  A
C1433      N1438   1.437       .  S
C1434      H1439   1.084       .  S
N1435      H1455   1.042       .  S
N1435      H1456   1.046       .  S
C1437      C1440   1.399       .  A
C1437      C1444   1.405       .  A
N1438      H1453   1.046       .  S
N1438      H1454   1.046       .  S
C1440      C1441   1.406       .  A
C1440      H1445   1.084       .  S
C1441      C1442   1.419       .  A
C1441      N1446   1.437       .  S
C1442      C1443   1.409       .  A
C1443      C1444   1.406       .  A
C1443      H1447   1.082       .  S
C1444      N1448   1.438       .  S
N1446      H1449   1.046       .  S
N1446      H1450   1.045       .  S
N1448      H1451   1.046       .  S
N1448      H1452   1.045       .  S
C1457      C1458   1.408       .  A
C1457      C1462   1.403       .  A
C1458      C1459   1.400       .  A
C1458      N1463   1.432       .  S
C1459      C1460   1.400       .  A
C1459      H1464   1.084       .  S
C1460      C1461   1.408       .  A
C1460      C1465   1.471       .  S
C1461      C1462   1.403       .  A
C1461      N1466   1.437       .  S
C1462      H1467   1.084       .  S
N1463      H1483   1.046       .  S
N1463      H1484   1.045       .  S
C1465      C1468   1.397       .  A
C1465      C1472   1.405       .  A
N1466      H1481   1.046       .  S
N1466      H1482   1.046       .  S
C1468      C1469   1.403       .  A
C1468      H1473   1.084       .  S
C1469      C1470   1.418       .  A
C1469      N1474   1.437       .  S
C1470      C1471   1.408       .  A
C1471      C1472   1.405       .  A
C1471      H1475   1.083       .  S
C1472      N1476   1.438       .  S
N1474      H1477   1.046       .  S
N1474      H1478   1.045       .  S
N1476      H1479   1.046       .  S
N1476      H1480   1.046       .  S
C1485      C1486   1.417       .  A
C1485      C1490   1.409       .  A
C1486      C1487   1.405       .  A
C1486      N1491   1.437       .  S
C1487      C1488   1.399       .  A
C1487      H1492   1.084       .  S
C1488      C1489   1.406       .  A
C1488      C1493   1.479       .  S
C1489      C1490   1.406       .  A
C1489      N1494   1.438       .  S
C1490      H1495   1.082       .  S
N1491      H1511   1.045       .  S
N1491      H1512   1.046       .  S
C1493      C1496   1.401       .  A
C1493      C1500   1.408       .  A
N1494      H1509   1.046       .  S
N1494      H1510   1.046       .  S
C1496      C1497   1.406       .  A
C1496      H1501   1.084       .  S
C1497      C1498   1.415       .  A
C1497      N1502   1.438       .  S
C1498      C1499   1.404       .  A
C1499      C1500   1.403       .  A
C1499      H1503   1.083       .  S
C1500      N1504   1.437       .  S
N1502      H1505   1.046       .  S
N1502      H1506   1.045       .  S
N1504      H1507   1.046       .  S
N1504      H1508   1.045       .  S
N1513      N1514   1.320       .  A
N1513      C1517   1.344       .  A
N1514      C1515   1.345       .  A
N1514     Cu1520   2.073       .  S
C1515      C1516   1.389       .  A
C1515      H1518   1.081       .  S
C1516      C1517   1.390       .  A
C1516      C1989   1.492       .  S
C1517      H1519   1.080       .  S
Cu1520     N1523   2.072       .  S
Cu1522     N1524   2.066       .  S
Cu1522     N1530   2.066       .  S
N1523      C1527   1.343       .  A
N1524      C1525   1.345       .  A
C1525      H1528   1.082       .  S
C1527      H1529   1.082       .  S
N1530      N1531   1.321       .  A
N1530      C1534   1.342       .  A
N1531      C1532   1.345       .  A
C1532      C1533   1.388       .  A
C1532      H1535   1.082       .  S
C1533      C1534   1.387       .  A
C1533      C1974   1.487       .  S
C1534      H1536   1.080       .  S
N1537      N1538   1.322       .  A
N1537      C1541   1.345       .  A
N1538      C1539   1.345       .  A
N1538     Cu1544   2.077       .  S
C1539      C1540   1.386       .  A
C1539      H1542   1.082       .  S
C1540      C1541   1.387       .  A
C1540      C1905   1.486       .  S
C1541      H1543   1.082       .  S
Cu1546     N1554   2.073       .  S
N1547      N1548   1.322       .  A
N1547      C1551   1.346       .  A
N1548      C1549   1.345       .  A
C1549      C1550   1.382       .  A
C1550      C1551   1.383       .  A
C1550      C1598   1.470       .  S
N1554      N1555   1.321       .  A
N1554      C1558   1.344       .  A
N1555      C1556   1.345       .  A
C1556      C1557   1.390       .  A
C1556      H1559   1.081       .  S
C1557      C1558   1.389       .  A
C1557      C1946   1.493       .  S
C1558      H1560   1.080       .  S
N1561      N1562   1.321       .  A
N1561     Cu1569   2.070       .  S
N1562     Cu1568   2.069       .  S
C1563      C1564   1.386       .  A
C1563      H1566   1.082       .  S
C1564      C1565   1.385       .  A
C1564      C1862   1.481       .  S
Cu1568     N1571   2.069       .  S
Cu1569     N1579   2.070       .  S
Cu1570     N1572   2.073       .  S
Cu1570     N1578   2.073       .  S
N1571      N1572   1.323       .  A
N1571      C1575   1.344       .  A
N1572      C1573   1.345       .  A
C1573      C1574   1.383       .  A
C1573      H1576   1.082       .  S
C1574      C1575   1.381       .  A
C1574      C1646   1.467       .  S
C1575      H1577   1.082       .  S
N1578      N1579   1.321       .  A
N1578      C1582   1.344       .  A
N1579      C1580   1.344       .  A
C1580      C1581   1.388       .  A
C1580      H1583   1.082       .  S
C1581      C1582   1.388       .  A
C1581      C1890   1.489       .  S
C1582      H1584   1.080       .  S
N1585      N1586   1.322       .  A
N1585      C1589   1.344       .  A
N1585     Cu1593   2.078       .  S
N1586      C1587   1.347       .  A
N1586     Cu1592   2.082       .  S
C1587      C1588   1.389       .  A
C1587      H1590   1.081       .  S
C1588      C1589   1.386       .  A
C1588      C1821   1.489       .  S
C1589      H1591   1.082       .  S
Cu1592     N1595   2.081       .  S
Cu1594     N1602   2.076       .  S
N1595      N1596   1.323       .  A
N1595      C1599   1.346       .  A
N1596      C1597   1.346       .  A
C1597      C1598   1.382       .  A
C1598      C1599   1.383       .  A
C1599      H1601   1.082       .  S
N1602      N1603   1.321       .  A
N1602      C1606   1.345       .  A
N1603      C1604   1.346       .  A
C1604      C1605   1.388       .  A
C1604      H1607   1.081       .  S
C1605      C1606   1.386       .  A
C1605      C1793   1.487       .  S
C1606      H1608   1.082       .  S
N1609      N1610   1.321       .  A
N1609      C1613   1.344       .  A
N1609     Cu1617   2.069       .  S
N1610      C1611   1.344       .  A
N1610     Cu1616   2.068       .  S
C1611      C1612   1.384       .  A
C1611      H1614   1.082       .  S
C1612      C1613   1.385       .  A
C1612      C1737   1.479       .  S
C1613      H1615   1.082       .  S
Cu1618     N1626   2.074       .  S
N1619      C1623   1.343   1_554  A
N1620      C1621   1.345   1_554  A
C1621      C1622   1.382       .  A
C1621      H1624   1.082       .  S
C1623      H1625   1.082       .  S
N1626      N1627   1.320       .  A
N1626      C1630   1.344       .  A
N1627      C1628   1.343       .  A
C1628      C1629   1.388       .  A
C1628      H1631   1.081       .  S
C1629      C1630   1.390       .  A
C1629      C1778   1.491       .  S
C1630      H1632   1.080       .  S
N1633      N1634   1.319       .  A
N1633      C1637   1.345       .  A
N1634      C1635   1.341       .  A
N1634     Cu1640   2.067       .  S
C1635      C1636   1.389       .  A
C1635      H1638   1.081       .  S
C1636      C1637   1.391       .  A
C1636      C1709   1.493       .  S
C1637      H1639   1.080       .  S
Cu1641     N1651   2.072       .  S
Cu1642     N1644   2.075       .  S
Cu1642     N1650   2.076       .  S
N1643      N1644   1.322       .  A
N1643      C1647   1.344       .  A
N1644      C1645   1.345       .  A
C1645      C1646   1.383       .  A
C1645      H1648   1.082       .  S
C1646      C1647   1.381       .  A
N1650      N1651   1.323       .  A
N1650      C1654   1.344       .  A
N1651      C1652   1.344       .  A
C1652      C1653   1.384       .  A
C1652      H1655   1.082       .  S
C1653      C1654   1.385       .  A
C1653      C1694   1.481       .  S
C1654      H1656   1.082       .  S
C1657      C1658   1.415       .  A
C1657      C1662   1.402       .  A
C1657      C1765   1.484       .  S
C1658      C1659   1.402       .  A
C1658      C1722   1.484       .  S
C1659      C1660   1.400       .  A
C1659      H1664   1.084       .  S
C1660      C1661   1.414       .  A
C1660      C1681   1.482       .  S
C1661      C1662   1.404       .  A
C1661      C1750   1.483       .  S
C1662      H1663   1.084       .  S
C1665      C1666   1.418       .  A
C1665      C1670   1.403       .  A
C1665      C1933   1.482       .  S
C1666      C1667   1.401       .  A
C1666      C2002   1.489       .  S
C1667      C1668   1.401       .  A
C1667      H1672   1.084       .  S
C1668      C1669   1.415       .  A
C1668      C1961   1.478       .  S
C1669      C1670   1.402       .  A
C1669      C1918   1.489       .  S
C1670      H1671   1.084       .  S
C1673      C1674   1.417       .  A
C1673      C1678   1.405       .  A
C1673      C1834   1.485       .  S
C1675      H1680   1.085       .  S
C1676      C1677   1.410       .  A
C1677      C1678   1.401       .  A
C1677      C1806   1.483       .  S
C1678      H1679   1.084       .  S
C1681      C1682   1.409       .  A
C1681      C1686   1.403       .  A
C1682      C1683   1.402       .  A
C1683      C1684   1.403       .  A
C1684      C1685   1.411       .  A
C1684      C1689   1.482       .  S
C1685      C1686   1.406       .  A
C1685      N1690   1.437       .  S
C1686      H1691   1.084       .  S
N1687      H1707   1.045       .  S
N1687      H1708   1.046       .  S
C1689      C1692   1.402       .  A
C1689      C1696   1.410       .  A
N1690      H1705   1.046       .  S
N1690      H1706   1.045       .  S
C1692      C1693   1.407       .  A
C1692      H1697   1.084       .  S
C1693      C1694   1.414       .  A
C1693      N1698   1.437       .  S
C1694      C1695   1.403       .  A
C1695      C1696   1.403       .  A
C1695      H1699   1.083       .  S
C1696      N1700   1.438       .  S
N1698      H1701   1.046       .  S
N1698      H1702   1.046       .  S
C1709      C1710   1.419       .  A
C1709      C1714   1.408       .  A
C1710      C1711   1.406       .  A
C1710      N1715   1.436       .  S
C1711      C1712   1.401       .  A
C1711      H1716   1.084       .  S
C1712      C1713   1.407       .  A
C1712      C1717   1.481       .  S
C1713      C1714   1.403       .  A
C1713      N1718   1.438       .  S
C1714      H1719   1.082       .  S
N1715      H1735   1.045       .  S
N1715      H1736   1.046       .  S
C1717      C1720   1.403       .  A
C1717      C1724   1.410       .  A
N1718      H1733   1.046       .  S
N1718      H1734   1.046       .  S
C1720      C1721   1.403       .  A
C1720      H1725   1.084       .  S
C1721      C1722   1.411       .  A
C1721      N1726   1.439       .  S
C1722      C1723   1.404       .  A
C1723      C1724   1.403       .  A
N1726      H1729   1.045       .  S
N1726      H1730   1.045       .  S
N1728      H1731   1.046       .  S
N1728      H1732   1.046       .  S
C1737      C1738   1.413       .  A
C1737      C1742   1.404       .  A
C1738      C1739   1.406       .  A
C1739      C1740   1.402       .  A
C1740      C1741   1.408       .  A
C1740      C1745   1.478       .  S
C1741      C1742   1.404       .  A
C1741      N1746   1.438       .  S
C1742      H1747   1.083       .  S
N1743      H1763   1.046       .  S
N1743      H1764   1.046       .  S
C1745      C1748   1.401       .  A
N1746      H1761   1.046       .  S
N1746      H1762   1.046       .  S
C1748      C1749   1.404       .  A
C1748      H1753   1.084       .  S
C1749      C1750   1.412       .  A
C1749      N1754   1.437       .  S
C1751      C1752   1.404       .  A
C1751      H1755   1.084   1_455  S
C1752      N1756   1.438   1_455  S
N1754      H1757   1.045       .  S
N1754      H1758   1.045       .  S
N1756      H1759   1.046       .  S
N1756      H1760   1.046       .  S
C1765      C1766   1.408       .  A
C1765      C1770   1.404       .  A
C1766      C1767   1.400       .  A
C1766      N1771   1.431       .  S
C1767      C1768   1.399       .  A
C1767      H1772   1.084       .  S
C1768      C1769   1.409       .  A
C1768      C1773   1.476       .  S
C1769      C1770   1.408       .  A
C1770      H1775   1.084       .  S
N1771      H1791   1.045       .  S
N1771      H1792   1.045       .  S
C1773      C1776   1.398       .  A
N1774      H1789   1.045       .  S
N1774      H1790   1.046       .  S
C1776      C1777   1.405       .  A
C1776      H1781   1.084       .  S
C1777      C1778   1.418       .  A
C1777      N1782   1.437       .  S
C1779      C1780   1.405       .  A
C1779      H1783   1.082       .  S
C1780      N1784   1.438       .  S
N1782      H1785   1.046       .  S
N1782      H1786   1.045       .  S
N1784      H1787   1.046       .  S
N1784      H1788   1.045       .  S
C1793      C1798   1.406       .  A
C1794      C1795   1.408       .  A
C1794      N1799   1.437       .  S
C1795      H1800   1.084       .  S
C1796      C1797   1.408       .  A
C1796      C1801   1.484       .  S
C1797      C1798   1.406       .  A
C1797      N1802   1.438       .  S
C1798      H1803   1.083       .  S
N1799      H1819   1.046       .  S
N1799      H1820   1.046       .  S
C1801      C1804   1.403       .  A
N1802      H1817   1.046       .  S
N1802      H1818   1.046       .  S
C1804      C1805   1.408       .  A
C1804      H1809   1.084       .  S
C1805      C1806   1.410       .  A
C1805      N1810   1.437       .  S
C1807      C1808   1.406       .  A
C1807      H1811   1.084       .  S
C1808      N1812   1.437       .  S
N1810      H1813   1.046       .  S
N1810      H1814   1.045       .  S
N1812      H1815   1.046       .  S
N1812      H1816   1.046       .  S
C1821      C1822   1.416       .  A
C1821      C1826   1.407       .  A
C1822      C1823   1.407       .  A
C1822      N1827   1.437       .  S
C1823      C1824   1.400       .  A
C1823      H1828   1.084       .  S
C1824      C1825   1.406       .  A
C1824      C1829   1.478       .  S
C1825      C1826   1.406       .  A
C1825      N1830   1.438   1_565  S
C1826      H1831   1.083   1_565  S
N1827      H1847   1.046       .  S
N1827      H1848   1.046       .  S
C1829      C1832   1.401       .  A
N1830      H1845   1.046       .  S
N1830      H1846   1.046       .  S
C1832      C1833   1.402       .  A
C1832      H1837   1.084       .  S
C1833      C1834   1.419       .  A
C1833      N1838   1.438       .  S
C1835      C1836   1.404       .  A
C1835      H1839   1.084       .  S
C1836      N1840   1.437       .  S
N1838      H1841   1.045       .  S
N1838      H1842   1.043       .  S
N1840      H1843   1.046       .  S
N1840      H1844   1.045       .  S
C1849      C1854   1.403       .  A
C1850      C1851   1.399       .  A
C1850      N1855   1.439       .  S
C1851      H1856   1.084       .  S
C1852      C1853   1.408       .  A
C1852      C1857   1.476       .  S
C1853      C1854   1.403       .  A
C1853      N1858   1.437       .  S
C1854      H1859   1.084       .  S
N1855      H1875   1.043       .  S
N1855      H1876   1.045       .  S
C1857      C1860   1.400       .  A
N1858      H1873   1.046       .  S
N1858      H1874   1.045       .  S
C1860      C1861   1.405       .  A
C1860      H1865   1.084       .  S
C1861      C1862   1.414       .  A
C1861      N1866   1.437       .  S
C1862      C1863   1.405       .  A
C1864      N1868   1.438       .  S
N1866      H1869   1.046       .  S
N1866      H1870   1.046       .  S
N1868      H1871   1.046       .  S
N1868      H1872   1.046       .  S
C1877      C1882   1.403       .  A
C1878      C1879   1.402       .  A
C1878      N1883   1.432       .  S
C1879      H1884   1.084       .  S
C1880      C1881   1.410       .  A
C1880      C1885   1.479       .  S
C1881      C1882   1.404       .  A
C1881      N1886   1.437       .  S
C1882      H1887   1.084       .  S
N1883      H1903   1.045       .  S
N1883      H1904   1.046       .  S
C1885      C1888   1.400       .  A
N1886      H1901   1.045       .  S
N1886      H1902   1.046       .  S
C1888      C1889   1.406       .  A
C1888      H1893   1.084       .  S
C1889      C1890   1.417       .  A
C1889      N1894   1.437       .  S
C1891      C1892   1.405       .  A
C1891      H1895   1.083       .  S
C1892      N1896   1.438       .  S
N1894      H1897   1.046       .  S
N1894      H1898   1.045       .  S
N1896      H1899   1.046       .  S
N1896      H1900   1.046       .  S
C1905      C1906   1.415       .  A
C1905      C1910   1.407       .  A
C1906      C1907   1.406       .  A
C1906      N1911   1.437       .  S
C1907      C1908   1.400       .  A
C1907      H1912   1.084       .  S
C1908      C1909   1.407       .  A
C1908      C1913   1.477       .  S
C1909      C1910   1.406       .  A
C1909      N1914   1.438       .  S
C1910      H1915   1.083       .  S
N1911      H1931   1.046       .  S
N1911      H1932   1.046       .  S
C1913      C1916   1.401       .  A
C1913      C1920   1.408       .  A
N1914      H1929   1.046       .  S
N1914      H1930   1.046       .  S
C1916      C1917   1.404       .  A
C1916      H1921   1.084       .  S
C1917      C1918   1.410       .  A
C1917      N1922   1.432       .  S
C1918      C1919   1.405       .  A
C1919      C1920   1.404       .  A
C1919      H1923   1.083       .  S
C1920      N1924   1.437       .  S
N1922      H1925   1.046       .  S
N1922      H1926   1.045       .  S
N1924      H1927   1.046       .  S
N1924      H1928   1.045       .  S
C1933      C1934   1.418       .  A
C1933      C1938   1.404       .  A
C1934      C1935   1.401       .  A
C1934      N1939   1.437       .  S
C1935      C1936   1.401       .  A
C1935      H1940   1.084       .  S
C1936      C1937   1.407       .  A
C1936      C1941   1.477       .  S
C1937      C1938   1.403       .  A
C1937      N1942   1.437       .  S
C1938      H1943   1.084       .  S
N1939      H1959   1.042       .  S
N1939      H1960   1.046       .  S
C1941      C1944   1.399       .  A
C1941      C1948   1.405       .  A
N1942      H1957   1.046       .  S
N1942      H1958   1.046       .  S
C1944      C1945   1.406       .  A
C1944      H1949   1.084       .  S
C1945      C1946   1.419       .  A
C1945      N1950   1.437       .  S
C1946      C1947   1.409       .  A
C1947      C1948   1.406       .  A
C1947      H1951   1.082       .  S
C1948      N1952   1.438       .  S
N1950      H1953   1.046       .  S
N1950      H1954   1.045       .  S
N1952      H1955   1.046       .  S
N1952      H1956   1.045       .  S
C1961      C1962   1.408       .  A
C1961      C1966   1.403       .  A
C1962      C1963   1.400       .  A
C1962      N1967   1.432       .  S
C1963      C1964   1.400       .  A
C1963      H1968   1.084       .  S
C1964      C1965   1.408       .  A
C1964      C1969   1.471       .  S
C1965      C1966   1.403       .  A
C1965      N1970   1.437       .  S
C1966      H1971   1.084       .  S
N1967      H1987   1.046       .  S
N1967      H1988   1.045       .  S
C1969      C1972   1.397       .  A
C1969      C1976   1.405       .  A
N1970      H1985   1.046       .  S
N1970      H1986   1.046       .  S
C1972      C1973   1.403       .  A
C1972      H1977   1.084       .  S
C1973      C1974   1.418       .  A
C1973      N1978   1.437       .  S
C1974      C1975   1.408       .  A
C1975      C1976   1.405       .  A
C1975      H1979   1.083       .  S
C1976      N1980   1.438       .  S
N1978      H1981   1.046       .  S
N1978      H1982   1.045       .  S
N1980      H1983   1.046       .  S
N1980      H1984   1.046       .  S
C1989      C1990   1.417       .  A
C1989      C1994   1.409       .  A
C1990      C1991   1.405       .  A
C1990      N1995   1.437       .  S
C1991      C1992   1.399       .  A
C1991      H1996   1.084       .  S
C1992      C1993   1.406       .  A
C1992      C1997   1.479       .  S
C1993      C1994   1.406       .  A
C1993      N1998   1.438       .  S
C1994      H1999   1.082       .  S
N1995      H2015   1.045       .  S
N1995      H2016   1.046       .  S
C1997      C2000   1.401       .  A
C1997      C2004   1.408       .  A
N1998      H2013   1.046       .  S
N1998      H2014   1.046       .  S
C2000      C2001   1.406       .  A
C2000      H2005   1.084       .  S
C2001      C2002   1.415       .  A
C2001      N2006   1.438       .  S
C2002      C2003   1.404       .  A
C2003      C2004   1.403       .  A
C2003      H2007   1.083       .  S
C2004      N2008   1.437       .  S
N2006      H2009   1.046       .  S
N2006      H2010   1.045       .  S
N2008      H2011   1.046       .  S
N2008      H2012   1.045       .  S
