geometry optimzed in LAMMPS
_audit_creation_date              2020-12-01 
_audit_creation_method            'lammps2cif' 
_symmetry_space_group_name_H-M    'P1' 
_symmetry_Int_Tables_number       1 
_symmetry_cell_setting            triclinic 
loop_ 
_symmetry_equiv_pos_as_xyz 
  x,y,z 
_cell_length_a                    33.85420203 
_cell_length_b                    33.389851923372504 
_cell_length_c                    33.417670881270574 
_cell_angle_alpha                 89.63894934043523 
_cell_angle_beta                  90.51406606557919 
_cell_angle_gamma                 90.64132708948004 
loop_ 
_atom_site_label 
_atom_site_type_symbol 
_atom_site_fract_x 
_atom_site_fract_y 
_atom_site_fract_z 
_atom_site_charge 
C1          C  0.11156949  0.05495436  0.11875706     0.86100
C2          C  0.08339400  0.08161184  0.14250818    -0.54200
C3          C  0.06002885  0.10623301  0.12030792     0.09000
C4          C  0.06549939  0.10020856  0.07409639     0.19900
C5          C  0.08521117  0.03128813  0.08952237    -0.54900
C6          C  0.06041015  0.05369522  0.06556015     0.09100
C7          C  0.13337798  0.08549332  0.09227837    -0.54400
C8          C  0.11047727  0.10888302  0.06766906     0.09700
H9          H  0.08528247  0.08523707  0.17470523     0.14200
H10         H  0.04552446  0.11921992  0.05623004    -0.00100
H11         H  0.08709011  0.99901646  0.08683908     0.14500
H12         H  0.16503335  0.09019647  0.09502504     0.14300
C13         C  0.00210214  0.11806108  0.95363906     0.86100
C14         C  0.97207537  0.13664553  0.98109949    -0.54200
C15         C  0.95065388  0.11057799  0.00351122     0.09000
C16         C  0.96390313  0.06576006  0.99847731     0.19900
C17         C  0.02870665  0.09459517  0.98307804    -0.54900
C18         C  0.01053874  0.06464790  0.00567992     0.09100
C19         C  0.98034067  0.08489406  0.93063283    -0.54400
C20         C  0.95865393  0.05806510  0.95281762     0.09700
H21         H  0.96669357  0.16865341  0.98154650     0.14200
H22         H  0.94712460  0.04504391  0.01786638    -0.00100
H23         H  0.05887415  0.10319078  0.98716845     0.14500
H24         H  0.98073410  0.08441445  0.89818757     0.14300
C25         C  0.95307319  0.94768220  0.05098247     0.86100
C26         C  0.93054193  0.97736670  0.07716273    -0.54200
C27         C  0.95254435  0.00110027  0.10229160     0.09000
C28         C  0.99754286  0.99397595  0.09701081     0.19900
C29         C  0.98193717  0.97554483  0.02735403    -0.54900
C30         C  0.00568342  0.00051450  0.05070468     0.09100
C31         C  0.98050332  0.92525977  0.07989025    -0.54400
C32         C  0.00238714  0.94821922  0.10535547     0.09700
H33         H  0.89847068  0.97693096  0.07780757     0.14200
H34         H  0.01591314  0.01277914  0.11683020    -0.00100
H35         H  0.98366573  0.97710220  0.99518550     0.14500
H36         H  0.97939686  0.89282090  0.08298950     0.14300
C37         C  0.12218119  0.00952214  0.95516098     0.86100
C38         C  0.09509015  0.98273201  0.92926556    -0.58000
C39         C  0.06859799  0.95838565  0.94887239     0.09000
C40         C  0.07262924  0.96352224  0.99519955     0.19900
C41         C  0.09520307  0.03232865  0.98309836    -0.54900
C42         C  0.06669209  0.01037698  0.00323688     0.09100
C43         C  0.14235361  0.97964749  0.98294985    -0.54400
C44         C  0.11785180  0.95436016  0.00310249     0.09700
H45         H  0.09944257  0.98087156  0.89721622     0.14200
H46         H  0.05287703  0.94409406  0.01300335    -0.00100
H47         H  0.10244421  0.06303600  0.98936402     0.14500
H48         H  0.17395219  0.97460574  0.98309863     0.14300
C49         C  0.03527489  0.03239367  0.03147963    -0.02900
C50         C  0.74720483  0.73260019  0.50713569     0.79800
N51         N  0.74439341  0.77359999  0.50768159    -0.78500
C52         C  0.77570842  0.79669932  0.49558382     0.82200
N53         N  0.80926049  0.77917098  0.48504274    -0.78400
C54         C  0.81402808  0.73949968  0.48727487     0.82300
N55         N  0.78305772  0.71564133  0.49906448    -0.80200
C56         C  0.50249117  0.72578016  0.73456273     0.79800
N57         N  0.49913036  0.71917670  0.77489345    -0.78500
C58         C  0.48521373  0.74880031  0.79866882     0.82200
N59         N  0.47684558  0.78449559  0.78264431    -0.78400
C60         C  0.48446262  0.79341565  0.74441280     0.82300
N61         N  0.49795120  0.76400495  0.71985659    -0.80200
C62         C  0.56935204  0.72823198  0.32246703     0.79800
N63         N  0.58223776  0.71304885  0.28706984    -0.78500
C64         C  0.59607257  0.73815437  0.25796423     0.82200
N65         N  0.59594456  0.77777375  0.26424002    -0.78400
C66         C  0.58012647  0.79377422  0.29698158     0.82300
N67         N  0.56599871  0.76896251  0.32638727    -0.80200
C68         C  0.73260483  0.55869612  0.33929416     0.79800
N69         N  0.76981181  0.57259233  0.34898133    -0.78500
C70         C  0.79666595  0.57935407  0.31932921     0.82200
N71         N  0.78668218  0.57103486  0.28149976    -0.78400
C72         C  0.75167976  0.55520879  0.27173183     0.82300
N73         N  0.72431294  0.54850332  0.30045827    -0.80200
O74         O  0.47067184  0.76625583  0.03963846    -0.74800
O75         O  0.58229115  0.74838855  0.01539390    -0.74900
O76         O  0.53739250  0.74660548  0.08171521    -0.74900
O77         O  0.51448670  0.76035724  0.97378101    -0.75000
O78         O  0.52331534  0.82663786  0.97680721    -0.74900
O79         O  0.55339353  0.81107639  0.08920328    -0.74900
O80         O  0.59054059  0.81460751  0.01850371    -0.74900
O81         O  0.48598168  0.83080654  0.04818911    -0.74900
Ni82       Ni  0.52570846  0.75301494  0.02756727     1.25400
Ni83       Ni  0.53861142  0.82320194  0.03349535     1.25400
C84         C  0.46055348  0.80272912  0.04697147     0.87300
C85         C  0.60456391  0.78008048  0.01311173     0.87300
C86         C  0.55053376  0.77493264  0.10314485     0.87300
C87         C  0.51442211  0.79446921  0.95721132     0.87500
O88         O  0.75913803  0.45834777  0.04770301    -0.74800
O89         O  0.75802444  0.57362365  0.02546857    -0.74900
O90         O  0.75398291  0.50571294  0.98168554    -0.74900
O91         O  0.75547805  0.52601887  0.09072406    -0.75000
O92         O  0.82133202  0.52520134  0.09402825    -0.74900
O93         O  0.81970613  0.50966643  0.97804872    -0.74900
O94         O  0.82392112  0.57253174  0.02819923    -0.74900
O95         O  0.82476585  0.46207057  0.04421908    -0.74900
Ni96       Ni  0.75425889  0.51583302  0.03635065     1.25400
Ni97       Ni  0.82486195  0.51732019  0.03607306     1.25400
C98         C  0.79346353  0.44174241  0.04943997     0.87300
C99         C  0.79206559  0.59151593  0.02372757     0.87300
C100        C  0.78529649  0.50531378  0.96137333     0.87300
C101        C  0.78724779  0.52866456  0.11072789     0.87500
C102        C  0.83652626  0.82284086  0.00046007     0.79800
N103        N  0.84927020  0.78402103  0.00062803    -0.78500
C104        C  0.82325655  0.75379184  0.99186869     0.82200
N105        N  0.78522274  0.76211631  0.98495820    -0.78400
C106        C  0.77125834  0.79934261  0.98730545     0.82300
N107        N  0.79692129  0.83027170  0.99555596    -0.80200
C108        C  0.73411111  0.50680584  0.72795405     0.79800
N109        N  0.77344358  0.50193246  0.71879009    -0.78500
C110        C  0.80056531  0.49427366  0.74841744     0.82200
N111        N  0.78858838  0.49248360  0.78630051    -0.78400
C112        C  0.75128938  0.49927416  0.79655001     0.82300
N113        N  0.72359541  0.50686334  0.76763327    -0.80200
C114        C  0.34874527  0.74118932  0.56236458     0.79800
N115        N  0.36232316  0.78020310  0.56498851    -0.78500
C116        C  0.33652663  0.81039688  0.57260524     0.82200
N117        N  0.29811598  0.80193172  0.57601706    -0.78400
C118        C  0.28352555  0.76510068  0.57035458     0.82300
N119        N  0.30866316  0.73431416  0.56328628    -0.80200
O120        O  0.06665548  0.75861688  0.47264818    -0.74800
O121        O  0.03677108  0.74688113  0.58549792    -0.74900
O122        O  0.99852611  0.74143778  0.51343847    -0.74900
O123        O  0.10389132  0.75584579  0.54429347    -0.75000
O124        O  0.09797397  0.82224536  0.54703358    -0.74900
O125        O  0.98665521  0.80686350  0.51742633    -0.74900
O126        O  0.02890363  0.81313515  0.58617388    -0.74900
O127        O  0.05522947  0.82375503  0.47874640    -0.74900
Ni128      Ni  0.05160078  0.74825039  0.52870539     1.25400
Ni129      Ni  0.04175482  0.81883979  0.53241470     1.25400
C130        C  0.06648661  0.79459657  0.45784550     0.87300
C131        C  0.02891084  0.77968083  0.60411200     0.87300
C132        C  0.97481388  0.77044304  0.51113422     0.87300
C133        C  0.11880690  0.79014725  0.55053400     0.87500
O134        O  0.05554498  0.47580278  0.76425222    -0.74800
O135        O  0.02630014  0.58940520  0.75775754    -0.74900
O136        O  0.09413241  0.54694716  0.76070304    -0.74900
O137        O  0.98726443  0.51818293  0.75236641    -0.75000
O138        O  0.97935449  0.51977399  0.81845785    -0.74900
O139        O  0.09215557  0.54913344  0.82733788    -0.74900
O140        O  0.02253888  0.58805976  0.82435425    -0.74900
O141        O  0.04893215  0.48066952  0.83017338    -0.74900
Ni142      Ni  0.04088585  0.53239914  0.75631591     1.25400
Ni143      Ni  0.03549284  0.53435162  0.82743568     1.25400
C144        C  0.05729326  0.46019297  0.79985613     0.87300
C145        C  0.02034184  0.60698691  0.79160428     0.87300
C146        C  0.11118344  0.55281313  0.79400861     0.87300
C147        C  0.96508721  0.51530741  0.78258487     0.87500
C148        C  0.01058238  0.83731212  0.83421939     0.79800
N149        N  0.00143919  0.79890107  0.84635363    -0.78500
C150        C  0.99127871  0.77048525  0.81864172     0.82200
N151        N  0.99113285  0.78020122  0.77979933    -0.78400
C152        C  0.00259992  0.81624636  0.76679054     0.82300
N153        N  0.01312623  0.84497973  0.79383022    -0.80200
C154        C  0.33778722  0.58795419  0.73679163     0.79800
N155        N  0.29788469  0.58443087  0.72915537    -0.78500
C156        C  0.27119600  0.59217883  0.75852189     0.82200
N157        N  0.28417283  0.60199919  0.79504351    -0.78400
C158        C  0.32262729  0.60339589  0.80451352     0.82300
N159        N  0.34983205  0.59548620  0.77555857    -0.80200
C160        C  0.71311282  0.32745888  0.56265984     0.79800
N161        N  0.70160608  0.28792880  0.56534214    -0.78500
C162        C  0.72923291  0.25909478  0.57185662     0.82200
N163        N  0.76747853  0.26928954  0.57415210    -0.78400
C164        C  0.78014107  0.30702962  0.56948539     0.82300
N165        N  0.75295732  0.33650282  0.56328390    -0.80200
O166        O  0.76912297  0.03325928  0.47858007    -0.74800
O167        O  0.77052267  0.01269606  0.59401637    -0.74900
O168        O  0.75309787  0.07628639  0.54549602    -0.74900
O169        O  0.77880976  0.96990185  0.52713090    -0.75000
O170        O  0.84359141  0.98311564  0.52820363    -0.74900
O171        O  0.81653865  0.09484981  0.54916820    -0.74900
O172        O  0.83437138  0.02903047  0.59373100    -0.74900
O173        O  0.83287884  0.05036122  0.48373086    -0.74900
Ni174      Ni  0.76553630  0.02272006  0.53627074     1.25400
Ni175      Ni  0.83416254  0.04008744  0.53883742     1.25400
C176        C  0.80221504  0.04416329  0.46258586     0.87300
C177        C  0.80416208  0.01669641  0.61236313     0.87300
C178        C  0.77933664  0.10313647  0.55042844     0.87300
C179        C  0.81411314  0.95841584  0.52435275     0.87500
O180        O  0.54844487  0.08844948  0.80933555    -0.74800
O181        O  0.52882097  0.97214474  0.81149666    -0.74900
O182        O  0.59331007  0.02161074  0.81705341    -0.74900
O183        O  0.48500739  0.03898512  0.81175866    -0.75000
O184        O  0.48386779  0.03635039  0.74519227    -0.74900
O185        O  0.59850521  0.02076994  0.75055168    -0.74900
O186        O  0.53328643  0.97329580  0.74495881    -0.74900
O187        O  0.54923491  0.08447859  0.74276062    -0.74900
Ni188      Ni  0.53899135  0.03034810  0.81480858     1.25400
Ni189      Ni  0.54141458  0.02876723  0.74343767     1.25400
C190        C  0.55097307  0.10518508  0.77437568     0.87300
C191        C  0.52735560  0.95421427  0.77723447     0.87300
C192        C  0.61404719  0.01824016  0.78598719     0.87300
C193        C  0.46594765  0.03996634  0.77904217     0.87500
C194        C  0.83988047  0.99175693  0.84352828     0.79800
N195        N  0.80070315  0.99343509  0.85387038    -0.78500
C196        C  0.77212471  0.98401143  0.82623847     0.82200
N197        N  0.78241669  0.97479312  0.78888686    -0.78400
C198        C  0.82007713  0.97471972  0.77726902     0.82300
N199        N  0.84893516  0.98382446  0.80448755    -0.80200
C200        C  0.55201371  0.33907470  0.72727995     0.79800
N201        N  0.55722126  0.30008322  0.71545159    -0.78500
C202        C  0.56847858  0.27182743  0.74308686     0.82200
N203        N  0.57295123  0.28227523  0.78145362    -0.78400
C204        C  0.56578899  0.31930817  0.79435288     0.82300
N205        N  0.55421637  0.34796916  0.76736450    -0.80200
O206        O  0.26107976  0.53563563  0.09886809    -0.74800
O207        O  0.26697816  0.56191226  0.98425424    -0.74900
O208        O  0.24876776  0.49537061  0.02926141    -0.74900
O209        O  0.27125323  0.60176007  0.05406391    -0.75000
O210        O  0.33637183  0.59231345  0.05319941    -0.74900
O211        O  0.31247718  0.47919652  0.03146277    -0.74900
O212        O  0.33054519  0.54586007  0.98713795    -0.74900
O213        O  0.32596291  0.52487513  0.09741482    -0.74900
Ni214      Ni  0.25968622  0.54896197  0.04143044     1.25400
Ni215      Ni  0.32867767  0.53493877  0.04223365     1.25400
C216        C  0.29404740  0.52711590  0.11673412     0.87300
C217        C  0.30108970  0.55854318  0.96735272     0.87300
C218        C  0.27554033  0.46928953  0.02765369     0.87300
C219        C  0.30614544  0.61518795  0.05763482     0.87500
C220        C  0.23484382  0.84007015  0.05350087     0.79800
N221        N  0.23365927  0.79904099  0.05766039    -0.78500
C222        C  0.26791789  0.77894351  0.06543498     0.82200
N223        N  0.30200398  0.79926007  0.06762278    -0.78400
C224        C  0.30424813  0.83871358  0.06105700     0.82300
N225        N  0.27069242  0.85966142  0.05341341    -0.80200
O226        O  0.01862883  0.47630187  0.31002245    -0.74800
O227        O  0.03997612  0.59199714  0.31484648    -0.74900
O228        O  0.97606156  0.54370792  0.31807241    -0.74900
O229        O  0.08353539  0.52441689  0.31470741    -0.75000
O230        O  0.08432819  0.52644587  0.24795321    -0.74900
O231        O  0.97102527  0.54963277  0.25179735    -0.74900
O232        O  0.03897738  0.59220810  0.24813106    -0.74900
O233        O  0.01589648  0.48276357  0.24358224    -0.74900
Ni234      Ni  0.02965965  0.53388075  0.31678379     1.25400
Ni235      Ni  0.02744207  0.53771144  0.24539705     1.25400
C236        C  0.01367543  0.46112783  0.27475479     0.87300
C237        C  0.04282934  0.61067900  0.28090508     0.87300
C238        C  0.95560181  0.55089572  0.28708754     0.87300
C239        C  0.10215848  0.52277030  0.28217693     0.87500
C240        C  0.06446391  0.84512097  0.23178856     0.79800
N241        N  0.05608370  0.80561310  0.22398881    -0.78500
C242        C  0.06748775  0.77686870  0.25065471     0.82200
N243        N  0.08552500  0.78753713  0.28470307    -0.78400
C244        C  0.09187769  0.82592392  0.29455465     0.82300
N245        N  0.08104921  0.85533645  0.26802969    -0.80200
C246        C  0.32530017  0.51243181  0.35249644     0.79800
N247        N  0.28532898  0.50950320  0.35848788    -0.78500
C248        C  0.26101449  0.49883679  0.32746241     0.82200
N249        N  0.27612384  0.49358712  0.29111786    -0.78400
C250        C  0.31447333  0.49924355  0.28349205     0.82300
N251        N  0.33969189  0.50919031  0.31423962    -0.80200
O252        O  0.51383476  0.25284303  0.09169350    -0.74800
O253        O  0.52510295  0.25120612  0.97481726    -0.74900
O254        O  0.57330135  0.24316808  0.03883220    -0.74900
O255        O  0.46434645  0.25294731  0.02774615    -0.75000
O256        O  0.46774343  0.31955249  0.03124270    -0.74900
O257        O  0.58316292  0.30911624  0.03558612    -0.74900
O258        O  0.52762188  0.31791884  0.97681632    -0.74900
O259        O  0.52420175  0.31879454  0.08872516    -0.74900
Ni260      Ni  0.51885362  0.24764495  0.03322049     1.25400
Ni261      Ni  0.52589324  0.31880122  0.03288115     1.25400
C262        C  0.51783351  0.28729891  0.10900129     0.87300
C263        C  0.52862700  0.28564382  0.95714030     0.87300
C264        C  0.59651487  0.27305672  0.03927704     0.87300
C265        C  0.44747061  0.28649738  0.02933194     0.87500
C266        C  0.82501324  0.21251836  0.06034277     0.79800
N267        N  0.83712645  0.24922769  0.07438489    -0.78500
C268        C  0.80991953  0.27786908  0.08258288     0.82200
N269        N  0.77176317  0.27042968  0.07468937    -0.78400
C270        C  0.75939289  0.23626685  0.05798235     0.82300
N271        N  0.78583526  0.20673418  0.05057817    -0.80200
O272        O  0.52729604  0.09346081  0.24627886    -0.74800
O273        O  0.54423503  0.97911946  0.22836321    -0.74900
O274        O  0.48117203  0.02802095  0.23253044    -0.74900
O275        O  0.59034248  0.04554900  0.23495516    -0.75000
O276        O  0.59362974  0.03395313  0.30051010    -0.74900
O277        O  0.47918520  0.01697442  0.29841130    -0.74900
O278        O  0.54339904  0.97107934  0.29470087    -0.74900
O279        O  0.52887489  0.08027521  0.31181418    -0.74900
Ni280      Ni  0.53570915  0.03703824  0.23315144     1.25400
Ni281      Ni  0.53629710  0.02541335  0.30377480     1.25400
C282        C  0.52545550  0.10494377  0.28308524     0.87300
C283        C  0.54627616  0.95663192  0.25996560     0.87300
C284        C  0.46202032  0.01912199  0.26377875     0.87300
C285        C  0.61059221  0.04184102  0.26674243     0.87500
C286        C  0.84495128  0.04684616  0.22836318     0.79800
N287        N  0.85727686  0.05115226  0.26747927    -0.78500
C288        C  0.83002509  0.05269644  0.29730149     0.82200
N289        N  0.79165235  0.04875255  0.28846784    -0.78400
C290        C  0.77878488  0.04256407  0.25109478     0.82300
N291        N  0.80525389  0.04192751  0.22056021    -0.80200
C292        C  0.51204284  0.33247885  0.34267854     0.79800
N293        N  0.50581276  0.34239488  0.30303103    -0.78500
C294        C  0.49586264  0.31312784  0.27606038     0.82200
N295        N  0.49349407  0.27504139  0.28852027    -0.78400
C296        C  0.50062534  0.26435793  0.32649677     0.82300
N297        N  0.51061536  0.29288327  0.35382648    -0.80200
O298        O  0.25705389  0.10081855  0.51706539    -0.74800
O299        O  0.26505796  0.98546477  0.53862103    -0.74900
O300        O  0.24991977  0.05213755  0.58178798    -0.74900
O301        O  0.26435986  0.03343284  0.47321889    -0.75000
O302        O  0.32999156  0.03781964  0.47890868    -0.74900
O303        O  0.31449611  0.06130286  0.59247456    -0.74900
O304        O  0.32973964  0.99526363  0.54823177    -0.74900
O305        O  0.32244807  0.10413296  0.52429562    -0.74900
Ni306      Ni  0.25672466  0.04272307  0.52738563     1.25400
Ni307      Ni  0.32652800  0.04986081  0.53628615     1.25400
C308        C  0.28982038  0.12120860  0.51764921     0.87300
C309        C  0.29996357  0.97206582  0.54687134     0.87300
C310        C  0.27847587  0.06027582  0.60514556     0.87300
C311        C  0.29827181  0.03178212  0.45781201     0.87500
C312        C  0.23647179  0.06176888  0.83517810     0.79800
N313        N  0.22241527  0.07206849  0.79779152    -0.78500
C314        C  0.24781880  0.07521722  0.76644719     0.82200
N315        N  0.28586898  0.06642499  0.77183957    -0.78400
C316        C  0.30029299  0.05477346  0.80723975     0.82300
N317        N  0.27581713  0.05263977  0.83944103    -0.80200
O318        O  0.08017633  0.26634345  0.52204512    -0.74800
O319        O  0.96535870  0.25671041  0.53627239    -0.74900
O320        O  0.01586307  0.25664750  0.47334658    -0.74900
O321        O  0.03003471  0.25829561  0.58368206    -0.75000
O322        O  0.02709580  0.32478218  0.58611163    -0.74900
O323        O  0.00861428  0.32287588  0.46982869    -0.74900
O324        O  0.96337186  0.32341542  0.53596189    -0.74900
O325        O  0.07247384  0.33254687  0.51961036    -0.74900
Ni326      Ni  0.02301081  0.25714511  0.52869750     1.25400
Ni327      Ni  0.01777538  0.32836715  0.52779919     1.25400
C328        C  0.09470862  0.30228611  0.51921626     0.87300
C329        C  0.94593811  0.28979449  0.53890954     0.87300
C330        C  0.00912821  0.28800520  0.45310711     0.87300
C331        C  0.03172954  0.29034925  0.60357913     0.87500
C332        C  0.06617192  0.23501151  0.83592714     0.79800
N333        N  0.05563357  0.22999982  0.79650644    -0.78500
C334        C  0.06569963  0.25860686  0.76903539     0.82200
N335        N  0.08506645  0.29161029  0.78093779    -0.78400
C336        C  0.09381738  0.29848038  0.81948564     0.82300
N337        N  0.08357804  0.27036064  0.84753984    -0.80200
C338        C  0.32575250  0.35841565  0.51589915     0.79800
N339        N  0.28659270  0.36938371  0.51719107    -0.78500
C340        C  0.25755048  0.34163666  0.50897336     0.82200
N341        N  0.26742546  0.30403423  0.50075985    -0.78400
C342        C  0.30487869  0.29183966  0.50072514     0.82300
N343        N  0.33444733  0.31894597  0.50872862    -0.80200
C344        C  0.99647201  0.23115837  0.22410923     0.79800
N345        N  0.99122541  0.22132373  0.26369604    -0.78500
C346        C  0.97934768  0.24991562  0.29000258     0.82200
N347        N  0.97338178  0.28726709  0.27674863    -0.78400
C348        C  0.98062175  0.29845400  0.23901482     0.82300
N349        N  0.99358057  0.27059574  0.21245899    -0.80200
C350        C  0.23424656  0.99875431  0.23081481     0.79800
N351        N  0.23008645  0.00208403  0.27153027    -0.78500
C352        C  0.26133155  0.99457493  0.29647577     0.82200
N353        N  0.29620646  0.98510851  0.28100465    -0.78400
C354        C  0.30189418  0.98391721  0.24146399     0.82300
N355        N  0.27118922  0.99163935  0.21601144    -0.80200
C356        C  0.21714565  0.23833294  0.02945921     0.79800
N357        N  0.20585418  0.27739281  0.02358270    -0.78500
C358        C  0.23325637  0.30751145  0.02725286     0.82200
N359        N  0.27054201  0.29899125  0.03736059    -0.78400
C360        C  0.28243972  0.26144168  0.04314606     0.82300
N361        N  0.25604731  0.23067471  0.03838956    -0.80200
C362        C  0.45350325  0.52901074  0.61996383     0.86100
C363        C  0.47792042  0.49917391  0.64463543    -0.54200
C364        C  0.49837289  0.47171930  0.62364052     0.09000
C365        C  0.49359544  0.47787597  0.57726812     0.19900
C366        C  0.48320806  0.54879716  0.59062832    -0.54900
C367        C  0.50518038  0.52345490  0.56668122     0.09100
C368        C  0.42810222  0.50122593  0.59311844    -0.54400
C369        C  0.44774360  0.47380350  0.57075557     0.09700
H370        H  0.47497648  0.49605388  0.67678340     0.14200
H371        H  0.50991736  0.45530750  0.56191187    -0.00100
H372        H  0.48599492  0.58108199  0.58833898     0.14500
H373        H  0.39612366  0.50029532  0.59452168     0.14300
C374        C  0.61603640  0.50407426  0.45617147     0.86100
C375        C  0.58375066  0.48345154  0.43142122    -0.54200
C376        C  0.55681144  0.46193681  0.45238632     0.09000
C377        C  0.56317890  0.46589649  0.49885539     0.19900
C378        C  0.59477751  0.52980385  0.48629417    -0.54900
C379        C  0.56401605  0.51320118  0.50837985     0.09100
C380        C  0.63285248  0.46998311  0.48106999    -0.54400
C381        C  0.60681564  0.45029543  0.50562200     0.09700
H382        H  0.58611130  0.47984335  0.39923007     0.14200
H383        H  0.54085713  0.44800979  0.51349165    -0.00100
H384        H  0.60574191  0.55971724  0.48842434     0.14500
H385        H  0.66361351  0.46148960  0.47909989     0.14300
C386        C  0.61884391  0.62596348  0.56824573     0.86100
C387        C  0.64122574  0.59203649  0.58851255    -0.54200
C388        C  0.61972811  0.56466658  0.60991368     0.09000
C389        C  0.57430900  0.57283165  0.60592128     0.19900
C390        C  0.58807678  0.60412647  0.54128960    -0.54900
C391        C  0.56504672  0.57367446  0.55899352     0.09100
C392        C  0.59262780  0.64390483  0.59966210    -0.54400
C393        C  0.57001633  0.61748195  0.62050862     0.09700
H394        H  0.67328323  0.59206198  0.58806202     0.14200
H395        H  0.55603125  0.55111123  0.62276441    -0.00100
H396        H  0.58457157  0.61428746  0.51110242     0.14500
H397        H  0.59169214  0.67589739  0.60514932     0.14300
C398        C  0.50131948  0.61954803  0.44601073     0.86100
C399        C  0.48327173  0.64524794  0.47860223    -0.54200
C400        C  0.46249099  0.62538863  0.50750714     0.09000
C401        C  0.46363904  0.57897983  0.50207828     0.19900
C402        C  0.52715134  0.58986204  0.46996892    -0.54900
C403        C  0.50985470  0.56915677  0.50188457     0.09100
C404        C  0.46837079  0.59280985  0.43015172    -0.54400
C405        C  0.44726118  0.57247380  0.45813917     0.09700
H406        H  0.48504088  0.67766939  0.47724426     0.14200
H407        H  0.44575028  0.56249246  0.52442924    -0.00100
H408        H  0.55685556  0.58637722  0.46122537     0.14500
H409        H  0.46102722  0.59110926  0.39849448     0.14300
C410        C  0.53563783  0.54316648  0.53425837    -0.02900
C411        C  0.39457941  0.37392507  0.54202234    -0.20700
C412        C  0.35911830  0.38810022  0.52495877    -0.07300
C413        C  0.35732437  0.42973705  0.51628440     0.13600
C414        C  0.38893589  0.45557290  0.52774805    -0.20800
C415        C  0.42297380  0.44203426  0.54849311    -0.07300
C416        C  0.42623568  0.39967115  0.55362994     0.13600
C417        C  0.46159352  0.37918280  0.57152941    -0.24100
H418        H  0.39740215  0.34205894  0.54760787     0.14900
H419        H  0.38609867  0.48744624  0.52218003     0.14900
C420        C  0.32238631  0.44754284  0.49465049    -0.24100
H421        H  0.47375373  0.35807915  0.54936218     0.05100
H422        H  0.45271191  0.36183822  0.59847331     0.08300
H423        H  0.48553420  0.39955628  0.58008096     0.08300
H424        H  0.29569279  0.44520886  0.51355567     0.08300
H425        H  0.31715595  0.43163867  0.46598484     0.08300
H426        H  0.32724875  0.47977283  0.48757891     0.05100
C427        C  0.15220641  0.32756210  0.48087029    -0.20700
C428        C  0.13751472  0.31168710  0.51687581    -0.07300
C429        C  0.16059730  0.31598695  0.55206366     0.13600
C430        C  0.19864680  0.33351862  0.54994277    -0.20800
C431        C  0.21458367  0.34684844  0.51338091    -0.07300
C432        C  0.19051103  0.34436479  0.47859700     0.13600
C433        C  0.20620984  0.35771139  0.43854320    -0.24100
H434        H  0.13363275  0.32655856  0.45428675     0.14900
H435        H  0.21738955  0.33365125  0.57642545     0.14900
C436        C  0.14505500  0.30186474  0.59189855    -0.24100
H437        H  0.18365804  0.35431461  0.41441658     0.05100
H438        H  0.23216834  0.33955749  0.43036996     0.08300
H439        H  0.21521307  0.38974698  0.43998780     0.08300
H440        H  0.13805556  0.26932899  0.59058362     0.08300
H441        H  0.11785557  0.31842799  0.59930666     0.08300
H442        H  0.16691048  0.30684319  0.61639889     0.05100
C443        C  0.95441917  0.26674021  0.35637988    -0.20700
C444        C  0.98367215  0.24739034  0.33397997    -0.07300
C445        C  0.02152447  0.24256058  0.35133292     0.13600
C446        C  0.02968616  0.25901837  0.38919011    -0.20800
C447        C  0.00121008  0.28066718  0.41025499    -0.07300
C448        C  0.96271483  0.28332197  0.39416803     0.13600
C449        C  0.93022331  0.30289125  0.41719348    -0.24100
H450        H  0.92555414  0.27132862  0.34288696     0.14900
H451        H  0.05857866  0.25474604  0.40273138     0.14900
C452        C  0.05396745  0.22173407  0.32929530    -0.24100
H453        H  0.90183293  0.30260451  0.40027253     0.05100
H454        H  0.93841220  0.33451706  0.42356015     0.08300
H455        H  0.92558249  0.28656382  0.44583369     0.08300
H456        H  0.06100871  0.23825236  0.30127531     0.08300
H457        H  0.04438246  0.19070648  0.32196098     0.08300
H458        H  0.08149683  0.22000315  0.34752756     0.05100
C459        C  0.02702062  0.29366406  0.71743572    -0.20700
C460        C  0.05031165  0.26026054  0.72779216    -0.07300
C461        C  0.06794033  0.23812936  0.69742306     0.13600
C462        C  0.06260937  0.25026596  0.65755050    -0.20800
C463        C  0.03986098  0.28413940  0.64691642    -0.07300
C464        C  0.02153995  0.30586376  0.67740260     0.13600
C465        C  0.99615289  0.34147077  0.66800172    -0.24100
H466        H  0.01459286  0.31148565  0.74114436     0.14900
H467        H  0.07664228  0.23307081  0.63433654     0.14900
C468        C  0.09357087  0.20271940  0.70719868    -0.24100
H469        H  0.98366422  0.35460820  0.69553301     0.05100
H470        H  0.97120039  0.33231994  0.64817448     0.08300
H471        H  0.01408172  0.36501482  0.65286636     0.08300
H472        H  0.07608232  0.17991552  0.72392079     0.08300
H473        H  0.11920189  0.21240400  0.72585640     0.08300
H474        H  0.10505985  0.18848937  0.67975942     0.05100
C475        C  0.32351724  0.18547250  0.53280379    -0.20700
C476        C  0.29299462  0.16520905  0.51166827    -0.07300
C477        C  0.27133899  0.18629772  0.48249380     0.13600
C478        C  0.28062932  0.22683026  0.47537084    -0.20800
C479        C  0.30937558  0.24778712  0.49841163    -0.07300
C480        C  0.33168610  0.22637143  0.52692380     0.13600
C481        C  0.36261390  0.24664634  0.55268795    -0.24100
H482        H  0.34067222  0.16926699  0.55502301     0.14900
H483        H  0.26305838  0.24323894  0.45363172     0.14900
C484        C  0.23814839  0.16659911  0.45938916    -0.24100
H485        H  0.37733859  0.22515298  0.57330299     0.05100
H486        H  0.34883073  0.27007697  0.57121246     0.08300
H487        H  0.38566164  0.26045968  0.53343749     0.08300
H488        H  0.21448465  0.15708228  0.48029073     0.08300
H489        H  0.24914061  0.13999488  0.44350458     0.08300
H490        H  0.22497979  0.18726655  0.43690577     0.05100
C491        C  0.28372232  0.98303278  0.40564116    -0.20700
C492        C  0.29747433  0.02178001  0.41505913    -0.07300
C493        C  0.29425963  0.05234236  0.38582149     0.13600
C494        C  0.27717986  0.04353658  0.34835405    -0.20800
C495        C  0.26314749  0.00488158  0.33911298    -0.07300
C496        C  0.26714439  0.97416665  0.36798563     0.13600
C497        C  0.25413939  0.93188566  0.35878080    -0.24100
H498        H  0.28442303  0.95992776  0.42859304     0.14900
H499        H  0.27663467  0.06663347  0.32538152     0.14900
C500        C  0.30836357  0.09459070  0.39329698    -0.24100
H501        H  0.25855302  0.91157223  0.38485224     0.05100
H502        H  0.27139733  0.92008898  0.33342530     0.08300
H503        H  0.22226833  0.93145597  0.35062967     0.08300
H504        H  0.32067163  0.09874490  0.42387686     0.08300
H505        H  0.28347412  0.11551987  0.38887916     0.08300
H506        H  0.33186674  0.10252311  0.37158770     0.05100
C507        C  0.25764340  0.11087443  0.70410344    -0.20700
C508        C  0.23665857  0.08027110  0.72432423    -0.07300
C509        C  0.22633617  0.04520191  0.70325670     0.13600
C510        C  0.24154449  0.03933310  0.66487619    -0.20800
C511        C  0.26707349  0.06760126  0.64694586    -0.07300
C512        C  0.27351162  0.10470209  0.66586714     0.13600
C513        C  0.29718619  0.13752464  0.64595816    -0.24100
H514        H  0.26591072  0.13774494  0.72035360     0.14900
H515        H  0.23439301  0.01185490  0.64912979     0.14900
C516        C  0.20227203  0.01235018  0.72277365    -0.24100
H517        H  0.29914351  0.16475904  0.66482198     0.05100
H518        H  0.28305533  0.14589367  0.61701896     0.08300
H519        H  0.32764564  0.12707301  0.64039640     0.08300
H520        H  0.17337186  0.02438815  0.73212789     0.08300
H521        H  0.21811842  0.00041252  0.74944111     0.08300
H522        H  0.19657395  0.98702419  0.70202953     0.05100
C523        C  0.55658460  0.38995786  0.43268886    -0.20700
C524        C  0.53819894  0.42736705  0.42985304    -0.07300
C525        C  0.51220711  0.43371173  0.39685931     0.13600
C526        C  0.50392363  0.40238634  0.36957379    -0.20800
C527        C  0.52138646  0.36442456  0.37336566    -0.07300
C528        C  0.54830092  0.35844375  0.40572560     0.13600
C529        C  0.57093577  0.32003547  0.41057433    -0.24100
H530        H  0.58046556  0.38657580  0.45395132     0.14900
H531        H  0.48397220  0.40801139  0.34466513     0.14900
C532        C  0.49498687  0.47420566  0.38786540    -0.24100
H533        H  0.59334768  0.32200069  0.43497732     0.05100
H534        H  0.58671165  0.31322603  0.38247324     0.08300
H535        H  0.55047494  0.29504075  0.41827261     0.08300
H536        H  0.50777552  0.48619295  0.35969683     0.08300
H537        H  0.50067152  0.49618105  0.41206275     0.08300
H538        H  0.46265473  0.47124620  0.38365101     0.05100
C539        C  0.48105641  0.15832259  0.30511273    -0.20700
C540        C  0.51938121  0.14676312  0.29505884    -0.07300
C541        C  0.55169418  0.17090658  0.30749487     0.13600
C542        C  0.54479611  0.20785384  0.32592985    -0.20800
C543        C  0.50625109  0.22127464  0.33220659    -0.07300
C544        C  0.47413101  0.19529215  0.32346240     0.13600
C545        C  0.43240017  0.20740551  0.33245960    -0.24100
H546        H  0.45649732  0.13825643  0.29883243     0.14900
H547        H  0.56945778  0.22806280  0.33175309     0.14900
C548        C  0.59348200  0.15813369  0.30027247    -0.24100
H549        H  0.41070881  0.18362381  0.32409155     0.05100
H550        H  0.42462078  0.23501579  0.31569971     0.08300
H551        H  0.42965474  0.21313466  0.36500013     0.08300
H552        H  0.59788069  0.15485092  0.26767211     0.08300
H553        H  0.59920912  0.12911590  0.31553793     0.08300
H554        H  0.61532065  0.18047471  0.31164241     0.05100
C555        C  0.35728956  0.02667297  0.22509691    -0.20700
C556        C  0.34351450  0.98729567  0.23044577    -0.07300
C557        C  0.36976753  0.95808868  0.24554439     0.13600
C558        C  0.40769103  0.96966682  0.25874946    -0.20800
C559        C  0.41997295  0.00982630  0.25701377    -0.07300
C560        C  0.39499559  0.03840213  0.23861479     0.13600
C561        C  0.40724139  0.08183301  0.23518908    -0.24100
H562        H  0.33686869  0.04933829  0.21463914     0.14900
H563        H  0.42793187  0.94728813  0.27012352     0.14900
C564        C  0.35682690  0.91490989  0.24922075    -0.24100
H565        H  0.38358925  0.10035738  0.22150295     0.05100
H566        H  0.43384844  0.08511744  0.21627510     0.08300
H567        H  0.41371448  0.09370163  0.26547421     0.08300
H568        H  0.34786202  0.90353353  0.21929975     0.08300
H569        H  0.33145681  0.91199426  0.26987634     0.08300
H570        H  0.38098667  0.89577796  0.26096563     0.05100
C571        C  0.67670860  0.01590683  0.28377408    -0.20700
C572        C  0.65416411  0.04337158  0.26197929    -0.07300
C573        C  0.67287592  0.06652165  0.23123960     0.13600
C574        C  0.71366774  0.06269151  0.22480926    -0.20800
C575        C  0.73595041  0.03542801  0.24699965    -0.07300
C576        C  0.71670649  0.01041528  0.27549982     0.13600
C577        C  0.73791651  0.97772150  0.29812848    -0.24100
H578        H  0.66265944  0.99712039  0.30621825     0.14900
H579        H  0.72860524  0.08246863  0.20383913     0.14900
C580        C  0.65080287  0.09659634  0.20592115    -0.24100
H581        H  0.72177778  0.94887062  0.29405648     0.05100
H582        H  0.73905121  0.98497271  0.33051262     0.08300
H583        H  0.76841896  0.97331899  0.28730472     0.08300
H584        H  0.63508147  0.11769153  0.22539594     0.08300
H585        H  0.62951676  0.08120034  0.18566588     0.08300
H586        H  0.67100303  0.11450121  0.18663394     0.05100
C587        C  0.53254119  0.32797938  0.21435258    -0.20700
C588        C  0.49642277  0.31773085  0.23200110    -0.07300
C589        C  0.46741039  0.29737128  0.20851042     0.13600
C590        C  0.47626332  0.28521784  0.16941090    -0.20800
C591        C  0.51308625  0.29364132  0.15252122    -0.07300
C592        C  0.54104276  0.31675741  0.17481426     0.13600
C593        C  0.58052931  0.32869754  0.15754348    -0.24100
H594        H  0.55520954  0.34249148  0.23242717     0.14900
H595        H  0.45392360  0.26995689  0.15152651     0.14900
C596        C  0.42690385  0.28813213  0.22483308    -0.24100
H597        H  0.59952594  0.34440780  0.17986564     0.05100
H598        H  0.57649964  0.34941164  0.13180212     0.08300
H599        H  0.59637760  0.30169728  0.14761886     0.08300
H600        H  0.41310246  0.31622003  0.23508898     0.08300
H601        H  0.42871904  0.26670474  0.25017269     0.08300
H602        H  0.40719345  0.27450487  0.20177661     0.05100
C603        C  0.34395993  0.24889268  0.00925063    -0.20700
C604        C  0.32547557  0.25707837  0.04543945    -0.07300
C605        C  0.34711038  0.27746346  0.07574835     0.13600
C606        C  0.38626538  0.29007591  0.06864169    -0.20800
C607        C  0.40400099  0.28379380  0.03149315    -0.07300
C608        C  0.38252333  0.26249093  0.00171471     0.13600
C609        C  0.39932058  0.25628429  0.96080312    -0.24100
H610        H  0.32679882  0.23520384  0.98530579     0.14900
H611        H  0.40337685  0.30404743  0.09243728     0.14900
C612        C  0.32847851  0.28636700  0.11546389    -0.24100
H613        H  0.37861207  0.23949507  0.94094054     0.05100
H614        H  0.42726018  0.23931236  0.96253343     0.08300
H615        H  0.40454675  0.28613414  0.94716270     0.08300
H616        H  0.31835631  0.25796479  0.12968384     0.08300
H617        H  0.30282290  0.30640504  0.11125236     0.08300
H618        H  0.34967763  0.30135600  0.13622522     0.05100
C619        C  0.66610550  0.27895883  0.01650143    -0.20700
C620        C  0.63884392  0.26310081  0.04367370    -0.07300
C621        C  0.65112546  0.23241097  0.07077750     0.13600
C622        C  0.69042711  0.21956444  0.07076564    -0.20800
C623        C  0.71797006  0.23638593  0.04466873    -0.07300
C624        C  0.70553261  0.26609829  0.01677179     0.13600
C625        C  0.73435046  0.28529030  0.98805445    -0.24100
H626        H  0.65648921  0.30123004  0.99488146     0.14900
H627        H  0.70042927  0.19832109  0.09324925     0.14900
C628        C  0.62353333  0.21410638  0.10131968    -0.24100
H629        H  0.71953675  0.30675502  0.96746521     0.05100
H630        H  0.74825568  0.26179431  0.96972045     0.08300
H631        H  0.75770637  0.30209596  0.00456355     0.08300
H632        H  0.60050858  0.19547364  0.08641564     0.08300
H633        H  0.60941857  0.23802467  0.11885269     0.08300
H634        H  0.63936659  0.19422748  0.12271692     0.05100
C635        C  0.34999043  0.56364303  0.40091671    -0.20700
C636        C  0.35214781  0.52454991  0.38643390    -0.07300
C637        C  0.38010364  0.49847872  0.40420583     0.13600
C638        C  0.40783419  0.51340682  0.43279279    -0.20800
C639        C  0.40865749  0.55403828  0.44390178    -0.07300
C640        C  0.37783779  0.57883494  0.42866982     0.13600
C641        C  0.37431467  0.62239668  0.43908503    -0.24100
H642        H  0.32773583  0.58343562  0.38856887     0.14900
H643        H  0.43065550  0.49392942  0.44440215     0.14900
C644        C  0.38081434  0.45502669  0.39262519    -0.24100
H645        H  0.34652290  0.62703187  0.45573320     0.05100
H646        H  0.37327219  0.64077352  0.41132640     0.08300
H647        H  0.39922830  0.63344452  0.45744210     0.08300
H648        H  0.38764937  0.45236040  0.36033008     0.08300
H649        H  0.35152308  0.44099579  0.39842426     0.08300
H650        H  0.40331705  0.43821213  0.41009433     0.05100
C651        C  0.15828175  0.47833715  0.29367614    -0.20700
C652        C  0.14485670  0.51745902  0.28767334    -0.07300
C653        C  0.16784281  0.54976903  0.30268147     0.13600
C654        C  0.20405896  0.54226623  0.32203635    -0.20800
C655        C  0.21799465  0.50313014  0.32695057    -0.07300
C656        C  0.19447583  0.47077628  0.31294755     0.13600
C657        C  0.20809976  0.42814686  0.31774981    -0.24100
H658        H  0.13984129  0.45349856  0.28434815     0.14900
H659        H  0.22288010  0.56723940  0.33086701     0.14900
C660        C  0.15400741  0.59233608  0.29822403    -0.24100
H661        H  0.18577671  0.40639509  0.30617502     0.05100
H662        H  0.21330401  0.42147762  0.34994958     0.08300
H663        H  0.23588859  0.42357686  0.30110563     0.08300
H664        H  0.12586144  0.59631189  0.31440479     0.08300
H665        H  0.14937239  0.59942621  0.26603954     0.08300
H666        H  0.17589771  0.61410015  0.31056802     0.05100
C667        C  0.96593570  0.40560217  0.26395234    -0.20700
C668        C  0.00543249  0.41828808  0.26712539    -0.07300
C669        C  0.03513257  0.39378070  0.25106638     0.13600
C670        C  0.02513716  0.35620728  0.23484721    -0.20800
C671        C  0.98599351  0.34212142  0.23445404    -0.07300
C672        C  0.95589361  0.36783050  0.24807052     0.13600
C673        C  0.91308687  0.35486702  0.24664257    -0.24100
H674        H  0.94283255  0.42553712  0.27351733     0.14900
H675        H  0.04845408  0.33624993  0.22585559     0.14900
C676        C  0.07776164  0.40675781  0.25240844    -0.24100
H677        H  0.89332264  0.37884469  0.25725058     0.05100
H678        H  0.90813575  0.32814018  0.26590705     0.08300
H679        H  0.90453949  0.34752299  0.21536659     0.08300
H680        H  0.08669605  0.41100286  0.28412364     0.08300
H681        H  0.08183491  0.43524419  0.23556243     0.08300
H682        H  0.09741192  0.38407924  0.23912602     0.05100
C683        C  0.07734787  0.66609606  0.24668525    -0.20700
C684        C  0.05011777  0.65415388  0.27629609    -0.07300
C685        C  0.02444358  0.68282445  0.29206259     0.13600
C686        C  0.02693118  0.72263011  0.27815112    -0.20800
C687        C  0.05495861  0.73468607  0.24938717    -0.07300
C688        C  0.08040714  0.70597314  0.23352343     0.13600
C689        C  0.11167006  0.71777489  0.20373586    -0.24100
H690        H  0.09626668  0.64383801  0.23353183     0.14900
H691        H  0.00873688  0.74519515  0.29184819     0.14900
C692        C  0.99465769  0.67162969  0.32353062    -0.24100
H693        H  0.12898165  0.69156659  0.19398274     0.05100
H694        H  0.13250641  0.73984778  0.21729641     0.08300
H695        H  0.09751169  0.73139232  0.17689921     0.08300
H696        H  0.01022495  0.66044981  0.35068190     0.08300
H697        H  0.97443364  0.64782773  0.31229589     0.08300
H698        H  0.97654385  0.69766047  0.33221045     0.05100
C699        C  0.31733253  0.54932087  0.18342658    -0.20700
C700        C  0.29802881  0.51985351  0.16025794    -0.07300
C701        C  0.29368305  0.48095569  0.17629170     0.13600
C702        C  0.30644969  0.47306039  0.21569599    -0.20800
C703        C  0.32279446  0.50334364  0.24023781    -0.07300
C704        C  0.32920239  0.54174064  0.22330865     0.13600
C705        C  0.34672551  0.57527694  0.24787310    -0.24100
H706        H  0.32298232  0.57854812  0.17021056     0.14900
H707        H  0.30036137  0.44383819  0.22874613     0.14900
C708        C  0.27494927  0.44791919  0.15197333    -0.24100
H709        H  0.35014068  0.60323702  0.22999469     0.05100
H710        H  0.37635240  0.56653280  0.25919730     0.08300
H711        H  0.32732856  0.58179679  0.27358708     0.08300
H712        H  0.29227808  0.44294971  0.12442402     0.08300
H713        H  0.24435685  0.45644037  0.14363455     0.08300
H714        H  0.27353209  0.41923222  0.16893127     0.05100
C715        C  0.24923119  0.36597462  0.98726998    -0.20700
C716        C  0.22668317  0.35003839  0.01896383    -0.07300
C717        C  0.21757895  0.37498639  0.05130147     0.13600
C718        C  0.23427247  0.41361570  0.05309367    -0.20800
C719        C  0.26101596  0.42752446  0.02398844    -0.07300
C720        C  0.26684801  0.40423648  0.98964203     0.13600
C721        C  0.29109276  0.41983288  0.95544440    -0.24100
H722        H  0.25668890  0.34665353  0.96254864     0.14900
H723        H  0.22731573  0.43272163  0.07805158     0.14900
C724        C  0.19257068  0.35967041  0.08529549    -0.24100
H725        H  0.29322319  0.39757673  0.93101700     0.05100
H726        H  0.32145289  0.42729150  0.96603656     0.08300
H727        H  0.27677129  0.44699803  0.94307543     0.08300
H728        H  0.20702240  0.33375168  0.10010100     0.08300
H729        H  0.16318648  0.35009167  0.07357678     0.08300
H730        H  0.18806345  0.38305756  0.10825354     0.05100
C731        C  0.28559984  0.67234881  0.09729506    -0.20700
C732        C  0.30789089  0.65850834  0.06479170    -0.07300
C733        C  0.31460804  0.68439494  0.03214258     0.13600
C734        C  0.29664017  0.72205883  0.03130998    -0.20800
C735        C  0.27297863  0.73532921  0.06300696    -0.07300
C736        C  0.26858267  0.71061383  0.09698692     0.13600
C737        C  0.24616554  0.72473759  0.13285288    -0.24100
H738        H  0.27945267  0.65204541  0.12198393     0.14900
H739        H  0.30252323  0.74221713  0.00642469     0.14900
C740        C  0.33996913  0.67180105  0.99773117    -0.24100
H741        H  0.24514320  0.70157296  0.15683822     0.05100
H742        H  0.21537388  0.73188099  0.12386779     0.08300
H743        H  0.26062479  0.75200230  0.14531703     0.08300
H744        H  0.32747420  0.64445203  0.98371051     0.08300
H745        H  0.37024196  0.66536084  0.00888613     0.08300
H746        H  0.34208796  0.69551119  0.97435636     0.05100
C747        C  0.49898566  0.37995094  0.69478603    -0.20700
C748        C  0.53914395  0.37073916  0.69761492    -0.07300
C749        C  0.56589470  0.39283172  0.67323536     0.13600
C750        C  0.55192343  0.42391782  0.64754717    -0.20800
C751        C  0.51160405  0.43386029  0.64547702    -0.07300
C752        C  0.48481748  0.41033529  0.66901232     0.13600
C753        C  0.44064718  0.41586627  0.66789008    -0.24100
H754        H  0.47819773  0.36308252  0.71297617     0.14900
H755        H  0.57279606  0.44153287  0.63020445     0.14900
C756        C  0.60942177  0.38443309  0.67530524    -0.24100
H757        H  0.43060214  0.42707394  0.69726087     0.05100
H758        H  0.42576760  0.38668189  0.66191657     0.08300
H759        H  0.43070507  0.43662916  0.64417431     0.08300
H760        H  0.61474775  0.35291303  0.66666828     0.08300
H761        H  0.62052187  0.38929857  0.70628638     0.08300
H762        H  0.62647318  0.40432302  0.65483922     0.05100
C763        C  0.52082379  0.32504922  0.85097305    -0.20700
C764        C  0.55982909  0.32156484  0.83801138    -0.07300
C765        C  0.58813432  0.30443859  0.86447004     0.13600
C766        C  0.57627082  0.28944097  0.90200209    -0.20800
C767        C  0.53676775  0.29094615  0.91400649    -0.07300
C768        C  0.50906527  0.30999571  0.88847206     0.13600
C769        C  0.46647158  0.31268249  0.89996807    -0.24100
H770        H  0.49873591  0.33661087  0.83037576     0.14900
H771        H  0.59817078  0.27751789  0.92261114     0.14900
C772        C  0.63105480  0.30199107  0.85307019    -0.24100
H773        H  0.44861193  0.32854056  0.87689896     0.05100
H774        H  0.46359105  0.32900361  0.92860831     0.08300
H775        H  0.45454690  0.28179726  0.90298881     0.08300
H776        H  0.64256483  0.33245456  0.84598983     0.08300
H777        H  0.63472682  0.28251853  0.82666695     0.08300
H778        H  0.64935957  0.28939959  0.87777176     0.05100
C779        C  0.59305489  0.16579290  0.76566100    -0.20700
C780        C  0.55505804  0.14890916  0.76766356    -0.07300
C781        C  0.52291470  0.17097607  0.75191947     0.13600
C782        C  0.52915692  0.21016395  0.73710943    -0.20800
C783        C  0.56691788  0.22801525  0.73724775    -0.07300
C784        C  0.59934457  0.20482784  0.75075513     0.13600
C785        C  0.64095106  0.22131665  0.75112091    -0.24100
H786        H  0.61815302  0.14825552  0.77522622     0.14900
H787        H  0.50394740  0.22808388  0.72841261     0.14900
C788        C  0.48172310  0.15333584  0.75151864    -0.24100
H789        H  0.66013294  0.20164325  0.73320522     0.05100
H790        H  0.65239173  0.22222813  0.78234902     0.08300
H791        H  0.64284908  0.25193483  0.73812106     0.08300
H792        H  0.47294416  0.14514571  0.78247249     0.08300
H793        H  0.48067168  0.12613508  0.73260369     0.08300
H794        H  0.45979496  0.17479409  0.73931160     0.05100
C795        C  0.66618608  0.97063593  0.80319688    -0.20700
C796        C  0.65604385  0.01023340  0.79407440    -0.07300
C797        C  0.68200607  0.04148432  0.80593829     0.13600
C798        C  0.71874123  0.03223118  0.82354873    -0.20800
C799        C  0.72992030  0.99235971  0.83023281    -0.07300
C800        C  0.70264024  0.96131775  0.82104697     0.13600
C801        C  0.71269623  0.91808528  0.82898868    -0.24100
H802        H  0.64512211  0.94691186  0.79702508     0.14900
H803        H  0.74004577  0.05606601  0.82920013     0.14900
C804        C  0.67096143  0.08461321  0.79969893    -0.24100
H805        H  0.68781457  0.89763494  0.82089473     0.05100
H806        H  0.71949218  0.91386550  0.86129298     0.08300
H807        H  0.73870585  0.90930822  0.81123315     0.08300
H808        H  0.64392757  0.09128740  0.81687963     0.08300
H809        H  0.66529949  0.09027062  0.76739035     0.08300
H810        H  0.69478885  0.10539329  0.80989430     0.05100
C811        C  0.35529840  0.02092243  0.77480788    -0.20700
C812        C  0.34247748  0.04440295  0.80715768    -0.07300
C813        C  0.37035394  0.06713470  0.82879057     0.13600
C814        C  0.40995937  0.06696694  0.81682239    -0.20800
C815        C  0.42273373  0.04441912  0.78372403    -0.07300
C816        C  0.39491284  0.02089443  0.76262153     0.13600
C817        C  0.40668767  0.99576561  0.72750972    -0.24100
H818        H  0.33355078  0.00419102  0.75747815     0.14900
H819        H  0.43134821  0.08454640  0.83373773     0.14900
C820        C  0.35818744  0.09259996  0.86351838    -0.24100
H821        H  0.38116459  0.97871633  0.71488333     0.05100
H822        H  0.42948223  0.97397746  0.73687152     0.08300
H823        H  0.41873953  0.01537288  0.70350223     0.08300
H824        H  0.34479328  0.07325588  0.88699394     0.08300
H825        H  0.33634857  0.11516060  0.85342500     0.08300
H826        H  0.38379092  0.10878186  0.87705557     0.05100
C827        C  0.82119459  0.01300992  0.39947605    -0.20700
C828        C  0.80834005  0.04738420  0.41913113    -0.07300
C829        C  0.81341146  0.08504571  0.40032687     0.13600
C830        C  0.82821738  0.08705675  0.36112454    -0.20800
C831        C  0.83866081  0.05229204  0.34036301    -0.07300
C832        C  0.83633423  0.01497832  0.36056026     0.13600
C833        C  0.84747975  0.97631628  0.34079513    -0.24100
H834        H  0.81997850  0.98437418  0.41485016     0.14900
H835        H  0.82843513  0.11553632  0.34534643     0.14900
C836        C  0.80211073  0.12297061  0.42129343    -0.24100
H837        H  0.87070202  0.96130835  0.35892456     0.05100
H838        H  0.85922813  0.98103297  0.31023483     0.08300
H839        H  0.82122534  0.95617189  0.33886600     0.08300
H840        H  0.81986151  0.12653426  0.44916562     0.08300
H841        H  0.77027994  0.12157605  0.42892758     0.08300
H842        H  0.80725406  0.14984760  0.40220877     0.05100
C843        C  0.79052436  0.97109598  0.66967525    -0.20700
C844        C  0.81057210  0.00485082  0.65487135    -0.07300
C845        C  0.84052328  0.02313575  0.67923231     0.13600
C846        C  0.84731461  0.00879873  0.71824654    -0.20800
C847        C  0.82576626  0.97634588  0.73354693    -0.07300
C848        C  0.79886432  0.95574033  0.70792194     0.13600
C849        C  0.77773128  0.91784489  0.72065528    -0.24100
H850        H  0.76886120  0.95586731  0.65096101     0.14900
H851        H  0.86747406  0.02494387  0.73789024     0.14900
C852        C  0.86439998  0.05907824  0.66556850    -0.24100
H853        H  0.78320927  0.89393958  0.69848692     0.05100
H854        H  0.74546605  0.92322567  0.72214937     0.08300
H855        H  0.78825108  0.90667702  0.75017138     0.08300
H856        H  0.84440203  0.08305531  0.65512258     0.08300
H857        H  0.88468381  0.05060011  0.64124141     0.08300
H858        H  0.88308343  0.07160775  0.69006479     0.05100
C859        C  0.64296049  0.34896566  0.54615039    -0.20700
C860        C  0.68225222  0.35982442  0.55653012    -0.07300
C861        C  0.69035071  0.40134867  0.56151629     0.13600
C862        C  0.66129711  0.42973159  0.55142464    -0.20800
C863        C  0.62455240  0.41902333  0.53396208    -0.07300
C864        C  0.61395221  0.37770258  0.53566362     0.13600
C865        C  0.57261144  0.36221057  0.52875205    -0.24100
H866        H  0.63471386  0.31753327  0.54523812     0.14900
H867        H  0.66898618  0.46129166  0.55328467     0.14900
C868        C  0.72968518  0.41688393  0.57648248    -0.24100
H869        H  0.56183171  0.34770243  0.55664727     0.05100
H870        H  0.57233413  0.33936385  0.50479204     0.08300
H871        H  0.55160125  0.38584217  0.52076786     0.08300
H872        H  0.75304324  0.41057753  0.55445379     0.08300
H873        H  0.73693353  0.40311036  0.60592828     0.08300
H874        H  0.72948761  0.44978461  0.58041238     0.05100
C875        C  0.73453074  0.19279205  0.60088395    -0.20700
C876        C  0.72261265  0.21590961  0.56768891    -0.07300
C877        C  0.72713050  0.19991076  0.52899167     0.13600
C878        C  0.74777166  0.16401174  0.52415930    -0.20800
C879        C  0.76400517  0.14360617  0.55713684    -0.07300
C880        C  0.75515675  0.15685076  0.59602620     0.13600
C881        C  0.76825352  0.13351681  0.63235766    -0.24100
H882        H  0.73162993  0.20516307  0.63062897     0.14900
H883        H  0.75158985  0.15195350  0.49443893     0.14900
C884        C  0.71276210  0.22246506  0.49257027    -0.24100
H885        H  0.75883793  0.14790732  0.66053801     0.05100
H886        H  0.80091980  0.13178681  0.63268417     0.08300
H887        H  0.75537357  0.10279130  0.63155472     0.08300
H888        H  0.72818334  0.25189594  0.49021940     0.08300
H889        H  0.68048675  0.22738584  0.49490987     0.08300
H890        H  0.71825117  0.20569242  0.46459910     0.05100
C891        C  0.84697409  0.28712998  0.59102513    -0.20700
C892        C  0.82367506  0.31139085  0.56548700    -0.07300
C893        C  0.84109204  0.32746503  0.53063378     0.13600
C894        C  0.88056055  0.31815392  0.52188348    -0.20800
C895        C  0.90290512  0.29199676  0.54623638    -0.07300
C896        C  0.88603308  0.27701287  0.58169558     0.13600
C897        C  0.90937975  0.25099976  0.61006701    -0.24100
H898        H  0.83364954  0.27414570  0.61756696     0.14900
H899        H  0.89418244  0.33142161  0.49566818     0.14900
C900        C  0.81784558  0.35297516  0.50176397    -0.24100
H901        H  0.89183489  0.24210249  0.63667049     0.05100
H902        H  0.93613778  0.26744560  0.62066163     0.08300
H903        H  0.91843605  0.22331469  0.59456079     0.08300
H904        H  0.80751532  0.38018727  0.51720606     0.08300
H905        H  0.79201201  0.33579210  0.49004813     0.08300
H906        H  0.83596153  0.36272665  0.47584573     0.05100
C907        C  0.40864196  0.57765293  0.71489982    -0.20700
C908        C  0.36830626  0.58039784  0.70421490    -0.07300
C909        C  0.35904000  0.57702774  0.66261720     0.13600
C910        C  0.38869570  0.56633076  0.63500721    -0.20800
C911        C  0.42775249  0.55705987  0.64694292    -0.07300
C912        C  0.43822738  0.56763575  0.68702945     0.13600
C913        C  0.48044272  0.57010254  0.70155082    -0.24100
H914        H  0.41758081  0.58326072  0.74558716     0.14900
H915        H  0.38057254  0.56352088  0.60374366     0.14900
C916        C  0.31802896  0.58423180  0.64635961    -0.24100
H917        H  0.48629934  0.60014642  0.71447293     0.05100
H918        H  0.50181252  0.56595113  0.67707440     0.08300
H919        H  0.48565085  0.54735231  0.72532753     0.08300
H920        H  0.30812815  0.61457694  0.65487382     0.08300
H921        H  0.29725780  0.56106613  0.65791159     0.08300
H922        H  0.31688291  0.58252998  0.61318592     0.05100
C923        C  0.34471178  0.56388836  0.86211571    -0.20700
C924        C  0.33028211  0.60046495  0.84806532    -0.07300
C925        C  0.30807694  0.62439610  0.87452539     0.13600
C926        C  0.29708829  0.60916105  0.91227997    -0.20800
C927        C  0.30920362  0.57122600  0.92529182    -0.07300
C928        C  0.33481368  0.54907584  0.90026900     0.13600
C929        C  0.35007521  0.50847883  0.91227871    -0.24100
H930        H  0.36086271  0.54507276  0.84176149     0.14900
H931        H  0.27936117  0.62721572  0.93192262     0.14900
C932        C  0.29523165  0.66591221  0.86247191    -0.24100
H933        H  0.36664790  0.49415392  0.88776137     0.05100
H934        H  0.32489664  0.48862203  0.91978060     0.08300
H935        H  0.37052546  0.51095117  0.93825076     0.08300
H936        H  0.27456735  0.66484962  0.83657748     0.08300
H937        H  0.32156680  0.68424385  0.85437076     0.08300
H938        H  0.27993941  0.68120796  0.88726265     0.05100
C939        C  0.17999899  0.53297878  0.78250972    -0.20700
C940        C  0.15342915  0.56384483  0.79064877    -0.07300
C941        C  0.16448438  0.60362750  0.78077771     0.13600
C942        C  0.20196497  0.61174100  0.76452600    -0.20800
C943        C  0.22894477  0.58101220  0.75729042    -0.07300
C944        C  0.21769583  0.54112658  0.76664309     0.13600
C945        C  0.24627883  0.50729878  0.76154584    -0.24100
H946        H  0.17085302  0.50219611  0.78786999     0.14900
H947        H  0.21121230  0.64256588  0.75959051     0.14900
C948        C  0.13674682  0.63768434  0.78781299    -0.24100
H949        H  0.23288345  0.47795853  0.76997206     0.05100
H950        H  0.27276831  0.51223580  0.78081683     0.08300
H951        H  0.25551858  0.50580674  0.72980335     0.08300
H952        H  0.13019707  0.63911805  0.82022554     0.08300
H953        H  0.10892487  0.63303933  0.77053719     0.08300
H954        H  0.14977660  0.66693720  0.77853476     0.05100
C955        C  0.10472084  0.40438799  0.79135322    -0.20700
C956        C  0.07024386  0.41872638  0.80882724    -0.07300
C957        C  0.05249652  0.39581309  0.84024572     0.13600
C958        C  0.06673518  0.35762949  0.84956225    -0.20800
C959        C  0.09808414  0.34137729  0.82854330    -0.07300
C960        C  0.11942072  0.36639060  0.80167559     0.13600
C961        C  0.15704677  0.35216230  0.78293351    -0.24100
H962        H  0.12035227  0.42303240  0.76990815     0.14900
H963        H  0.05045003  0.33870148  0.87028600     0.14900
C964        C  0.01714953  0.41010815  0.86310714    -0.24100
H965        H  0.17066125  0.37572289  0.76373420     0.05100
H966        H  0.15146109  0.32547919  0.76405863     0.08300
H967        H  0.17860271  0.34432545  0.80688277     0.08300
H968        H  0.99365753  0.41896309  0.84189602     0.08300
H969        H  0.02547080  0.43578012  0.88242634     0.08300
H970        H  0.00474700  0.38645360  0.88302685     0.05100
C971        C  0.96505048  0.70376515  0.80344035    -0.20700
C972        C  0.99287095  0.72694282  0.82528505    -0.07300
C973        C  0.02948402  0.70973945  0.83543018     0.13600
C974        C  0.03823760  0.67141458  0.82139110    -0.20800
C975        C  0.01200281  0.64986049  0.79649203    -0.07300
C976        C  0.97430319  0.66561312  0.78877680     0.13600
C977        C  0.94373743  0.64192756  0.76579231    -0.24100
H978        H  0.93715612  0.71712749  0.79485289     0.14900
H979        H  0.06577465  0.65782080  0.83037592     0.14900
C980        C  0.06044740  0.73257661  0.85895749    -0.24100
H981        H  0.91586494  0.65879033  0.76184308     0.05100
H982        H  0.93684919  0.61382912  0.78233918     0.08300
H983        H  0.95518357  0.63458471  0.73571153     0.08300
H984        H  0.04816454  0.74162995  0.88819336     0.08300
H985        H  0.07004737  0.75964142  0.84203790     0.08300
H986        H  0.08705674  0.71422547  0.86488408     0.05100
C987        C  0.06174993  0.84008928  0.39909894    -0.20700
C988        C  0.07895819  0.80562223  0.41650329    -0.07300
C989        C  0.11020214  0.78726715  0.39624003     0.13600
C990        C  0.12037556  0.80126589  0.35778085    -0.20800
C991        C  0.09866044  0.83169515  0.33805135    -0.07300
C992        C  0.07132068  0.85346033  0.36047162     0.13600
C993        C  0.05017388  0.88915790  0.34313214    -0.24100
H994        H  0.03919004  0.85597582  0.41521161     0.14900
H995        H  0.14213957  0.78495259  0.34094772     0.14900
C996        C  0.13237961  0.75270083  0.41444242    -0.24100
H997        H  0.03175408  0.90410028  0.36583605     0.05100
H998        H  0.03028093  0.87977253  0.31827665     0.08300
H999        H  0.07213878  0.91145390  0.33203933     0.08300
H1000       H  0.11195455  0.72691477  0.41916035     0.08300
H1001       H  0.14571265  0.76165103  0.44353170     0.08300
H1002       H  0.15656057  0.74266076  0.39476010     0.05100
C1003       C  0.05345823  0.78759972  0.67297247    -0.20700
C1004       C  0.02087936  0.78249823  0.64718102    -0.07300
C1005       C  0.98342780  0.79562099  0.65973959     0.13600
C1006       C  0.97929307  0.81279588  0.69770769    -0.20800
C1007       C  0.01165294  0.81726555  0.72387887    -0.07300
C1008       C  0.04918293  0.80423065  0.71129331     0.13600
C1009       C  0.08444281  0.80633009  0.73908524    -0.24100
H1010       H  0.08258198  0.77962307  0.66260898     0.14900
H1011       H  0.95008492  0.82036547  0.70814628     0.14900
C1012       C  0.94752094  0.79077910  0.63318564    -0.24100
H1013       H  0.11159808  0.79529600  0.72457480     0.05100
H1014       H  0.07902598  0.78760910  0.76610987     0.08300
H1015       H  0.08975231  0.83783602  0.74828779     0.08300
H1016       H  0.94275979  0.75849814  0.62695994     0.08300
H1017       H  0.95160892  0.80734337  0.60459730     0.08300
H1018       H  0.92048394  0.80226103  0.64756402     0.05100
C1019       C  0.41848748  0.71592202  0.55832508    -0.20700
C1020       C  0.37767971  0.70725621  0.55580727    -0.07300
C1021       C  0.36650340  0.66673904  0.54715509     0.13600
C1022       C  0.39567861  0.63846134  0.53694590    -0.20800
C1023       C  0.43580004  0.64914785  0.53439654    -0.07300
C1024       C  0.44733609  0.68746591  0.54886631     0.13600
C1025       C  0.49012787  0.69948793  0.55436981    -0.24100
H1026       H  0.42837965  0.74548893  0.56742752     0.14900
H1027       H  0.38659523  0.60876253  0.52744063     0.14900
C1028       C  0.32404233  0.65273768  0.54693583    -0.24100
H1029       H  0.49514815  0.71016675  0.58539005     0.05100
H1030       H  0.49770138  0.72425918  0.53339220     0.08300
H1031       H  0.51046676  0.67415841  0.54955406     0.08300
H1032       H  0.30708008  0.66916499  0.52361635     0.08300
H1033       H  0.31092213  0.65741955  0.57685147     0.08300
H1034       H  0.32122745  0.62030377  0.54012064     0.05100
C1035       C  0.22749172  0.79138105  0.53299457    -0.20700
C1036       C  0.24074307  0.76408995  0.56251753    -0.07300
C1037       C  0.21372262  0.74918998  0.59083182     0.13600
C1038       C  0.17427896  0.76173965  0.58872517    -0.20800
C1039       C  0.16133268  0.78962528  0.55962879    -0.07300
C1040       C  0.18848482  0.80492213  0.53175106     0.13600
C1041       C  0.17628106  0.83514410  0.50043995    -0.24100
H1042       H  0.24865155  0.80409580  0.51213556     0.14900
H1043       H  0.15302480  0.74870877  0.60928137     0.14900
C1044       C  0.22565020  0.72063081  0.62372349    -0.24100
H1045       H  0.20132482  0.84398615  0.48090990     0.05100
H1046       H  0.16539981  0.86249095  0.51530255     0.08300
H1047       H  0.15239918  0.82259527  0.48119264     0.08300
H1048       H  0.22034532  0.73455155  0.65324939     0.08300
H1049       H  0.25720912  0.71229032  0.62223412     0.08300
H1050       H  0.20768749  0.69269745  0.62141666     0.05100
C1051       C  0.33471331  0.87797824  0.59915238    -0.20700
C1052       C  0.34418391  0.85346443  0.56658776    -0.07300
C1053       C  0.33895963  0.86900474  0.52740771     0.13600
C1054       C  0.32154057  0.90674232  0.52173498    -0.20800
C1055       C  0.30896160  0.92953236  0.55427387    -0.07300
C1056       C  0.31735662  0.91573958  0.59346427     0.13600
C1057       C  0.30726700  0.94065075  0.62935121    -0.24100
H1058       H  0.33746847  0.86588309  0.62922814     0.14900
H1059       H  0.31793809  0.91869702  0.49169365     0.14900
C1060       C  0.34949022  0.84449949  0.49140549    -0.24100
H1061       H  0.31506211  0.92524825  0.65785733     0.05100
H1062       H  0.27507335  0.94663422  0.62935368     0.08300
H1063       H  0.32372412  0.96958425  0.62836480     0.08300
H1064       H  0.33151061  0.81649874  0.49062854     0.08300
H1065       H  0.38128603  0.83678722  0.49290121     0.08300
H1066       H  0.34402761  0.86110144  0.46301582     0.05100
C1067       C  0.66273475  0.51868542  0.70666285    -0.20700
C1068       C  0.70274343  0.51393572  0.69558030    -0.07300
C1069       C  0.71100306  0.51564530  0.65391166     0.13600
C1070       C  0.68074169  0.52525377  0.62624893    -0.20800
C1071       C  0.64255058  0.53670872  0.63811217    -0.07300
C1072       C  0.63262296  0.52917222  0.67866453     0.13600
C1073       C  0.59058071  0.53066424  0.69285102    -0.24100
H1074       H  0.65478703  0.51481751  0.73777049     0.14900
H1075       H  0.68804723  0.52702465  0.59477296     0.14900
C1076       C  0.75183471  0.50939090  0.63762065    -0.24100
H1077       H  0.57239907  0.50841965  0.67614817     0.05100
H1078       H  0.57805396  0.56072398  0.68853806     0.08300
H1079       H  0.58827465  0.52316933  0.72516997     0.08300
H1080       H  0.76230880  0.47896398  0.64563074     0.08300
H1081       H  0.77230940  0.53261631  0.64955589     0.08300
H1082       H  0.75263455  0.51228576  0.60452042     0.05100
C1083       C  0.86418931  0.46555447  0.76788012    -0.20700
C1084       C  0.84414429  0.49425318  0.74432029    -0.07300
C1085       C  0.86491357  0.52924594  0.73272691     0.13600
C1086       C  0.90404152  0.53530643  0.74636834    -0.20800
C1087       C  0.92253013  0.50839151  0.77311978    -0.07300
C1088       C  0.90263129  0.47245760  0.78281721     0.13600
C1089       C  0.92208062  0.44104517  0.80823495    -0.24100
H1090       H  0.84827848  0.43883687  0.77742563     0.14900
H1091       H  0.92019781  0.56167822  0.73651068     0.14900
C1092       C  0.84533766  0.56116656  0.70777067    -0.24100
H1093       H  0.90222582  0.41489394  0.81361729     0.05100
H1094       H  0.93052156  0.45392376  0.83768547     0.08300
H1095       H  0.94866018  0.43029833  0.79257239     0.08300
H1096       H  0.81916821  0.57283573  0.72353161     0.08300
H1097       H  0.83598763  0.54836232  0.67860167     0.08300
H1098       H  0.86567734  0.58680135  0.70177585     0.05100
C1099       C  0.78167210  0.53701722  0.89525635    -0.20700
C1100       C  0.77862512  0.50183421  0.91804854    -0.07300
C1101       C  0.75712338  0.46873951  0.90218334     0.13600
C1102       C  0.74185239  0.47073846  0.86302107    -0.20800
C1103       C  0.74644223  0.50533522  0.83954135    -0.07300
C1104       C  0.76560168  0.53926517  0.85644693     0.13600
C1105       C  0.77088049  0.57736721  0.83246995    -0.24100
H1106       H  0.79574674  0.56323455  0.90830138     0.14900
H1107       H  0.72872250  0.44411148  0.84976727     0.14900
C1108       C  0.75013807  0.43061098  0.92563652    -0.24100
H1109       H  0.78569455  0.60124695  0.85030199     0.05100
H1110       H  0.74154234  0.58845150  0.82263928     0.08300
H1111       H  0.78923275  0.57190808  0.80573164     0.08300
H1112       H  0.71788330  0.42521136  0.92874199     0.08300
H1113       H  0.76336654  0.43146877  0.95603750     0.08300
H1114       H  0.76318448  0.40502501  0.90953539     0.05100
C1115       C  0.80798941  0.64578462  0.97683397    -0.20700
C1116       C  0.79767430  0.63446874  0.01588775    -0.07300
C1117       C  0.80659371  0.66076528  0.04774494     0.13600
C1118       C  0.82278087  0.69883719  0.03947588    -0.20800
C1119       C  0.83020370  0.71132683  0.00001583    -0.07300
C1120       C  0.82396921  0.68388716  0.96854743     0.13600
C1121       C  0.83305477  0.69555979  0.92595933    -0.24100
H1122       H  0.80410771  0.62441843  0.95279085     0.14900
H1123       H  0.82624448  0.72026420  0.06355309     0.14900
C1124       C  0.79842768  0.64878599  0.09044113    -0.24100
H1125       H  0.82718403  0.67046496  0.90498244     0.05100
H1126       H  0.86471311  0.70424627  0.92365848     0.08300
H1127       H  0.81457581  0.72121619  0.91641930     0.08300
H1128       H  0.81560989  0.62177043  0.09863165     0.08300
H1129       H  0.76643382  0.64213705  0.09378317     0.08300
H1130       H  0.80666478  0.67296889  0.11171694     0.05100
C1131       C  0.78469185  0.38383987  0.09526186    -0.20700
C1132       C  0.79958715  0.39909254  0.05927154    -0.07300
C1133       C  0.82711697  0.37604838  0.03756073     0.13600
C1134       C  0.83667611  0.33743467  0.05092706    -0.20800
C1135       C  0.81916459  0.32085745  0.08503830    -0.07300
C1136       C  0.79476681  0.34531664  0.10878598     0.13600
C1137       C  0.77818946  0.32999518  0.14779999    -0.24100
H1138       H  0.76546686  0.40223888  0.11304119     0.14900
H1139       H  0.85459523  0.31854935  0.03223164     0.14900
C1140       C  0.84505028  0.39095279  0.99893658    -0.24100
H1141       H  0.76078430  0.35326054  0.16314200     0.05100
H1142       H  0.80282241  0.32112441  0.16801314     0.08300
H1143       H  0.75843586  0.30375466  0.14282519     0.08300
H1144       H  0.86483646  0.41703490  0.00449833     0.08300
H1145       H  0.82136219  0.39946335  0.97754402     0.08300
H1146       H  0.86313546  0.36765679  0.98448650     0.05100
C1147       C  0.70542827  0.77590363  0.96425125    -0.20700
C1148       C  0.72761888  0.80127200  0.98993852    -0.07300
C1149       C  0.70926972  0.81619288  0.02436758     0.13600
C1150       C  0.66987760  0.80566337  0.03204276    -0.20800
C1151       C  0.64775001  0.78022857  0.00659990    -0.07300
C1152       C  0.66595374  0.76498203  0.97217524     0.13600
C1153       C  0.64511903  0.73737957  0.94321692    -0.24100
H1154       H  0.71973695  0.76292027  0.93855199     0.14900
H1155       H  0.65586295  0.81778818  0.05833888     0.14900
C1156       C  0.73155190  0.84113607  0.05455115    -0.24100
H1157       H  0.64519009  0.75103808  0.91284405     0.05100
H1158       H  0.61412348  0.73083930  0.95146246     0.08300
H1159       H  0.66100337  0.70849961  0.94209743     0.08300
H1160       H  0.74361570  0.86855859  0.03996730     0.08300
H1161       H  0.75584478  0.82313525  0.06758716     0.08300
H1162       H  0.71240913  0.85063061  0.07951089     0.05100
C1163       C  0.39756395  0.82270394  0.01583198    -0.20700
C1164       C  0.41923315  0.81560640  0.05106049    -0.07300
C1165       C  0.40557337  0.83201212  0.08726340     0.13600
C1166       C  0.36892226  0.85138139  0.08805884    -0.20800
C1167       C  0.34458970  0.85301010  0.05390809    -0.07300
C1168       C  0.36081586  0.84179821  0.01678641     0.13600
C1169       C  0.33788289  0.84610580  0.97824013    -0.24100
H1170       H  0.40943261  0.81347691  0.98733712     0.14900
H1171       H  0.35659993  0.85958810  0.11667622     0.14900
C1172       C  0.42813650  0.82638973  0.12576103    -0.24100
H1173       H  0.35555867  0.86388511  0.95649327     0.05100
H1174       H  0.30950703  0.86172741  0.98264332     0.08300
H1175       H  0.33155750  0.81604282  0.96550944     0.08300
H1176       H  0.45851127  0.83892176  0.12318325     0.08300
H1177       H  0.42921988  0.79391813  0.13246096     0.08300
H1178       H  0.41358908  0.84130339  0.15124559     0.05100
C1179       C  0.63400423  0.54218552  0.39238742    -0.20700
C1180       C  0.64630210  0.52745023  0.43007420    -0.07300
C1181       C  0.68670469  0.53353828  0.44070489     0.13600
C1182       C  0.71419149  0.54389833  0.41073412    -0.20800
C1183       C  0.70218728  0.55169917  0.37099954    -0.07300
C1184       C  0.66107000  0.55337173  0.36264729     0.13600
C1185       C  0.64494314  0.56703125  0.32263155    -0.24100
H1186       H  0.60277162  0.54358992  0.38534514     0.14900
H1187       H  0.74528207  0.54574688  0.41862524     0.14900
C1188       C  0.70171394  0.53166765  0.48329521    -0.24100
H1189       H  0.61246034  0.57130387  0.32336948     0.05100
H1190       H  0.65072565  0.54427284  0.29944382     0.08300
H1191       H  0.65873151  0.59609739  0.31398861     0.08300
H1192       H  0.72241918  0.50632603  0.48697210     0.08300
H1193       H  0.67764924  0.52876489  0.50539813     0.08300
H1194       H  0.71771845  0.55997608  0.49047498     0.05100
C1195       C  0.77304448  0.50950282  0.22062422    -0.20700
C1196       C  0.74858408  0.54176697  0.23050116    -0.07300
C1197       C  0.73891243  0.57025096  0.20101047     0.13600
C1198       C  0.75511960  0.56685923  0.16286935    -0.20800
C1199       C  0.78117651  0.53579887  0.15343965    -0.07300
C1200       C  0.78965179  0.50631393  0.18243311     0.13600
C1201       C  0.81593715  0.47159719  0.17306399    -0.24100
H1202       H  0.78182052  0.48859708  0.24394698     0.14900
H1203       H  0.74682979  0.58825763  0.13986078     0.14900
C1204       C  0.71283294  0.60519707  0.21048070    -0.24100
H1205       H  0.81934675  0.45109322  0.19914175     0.05100
H1206       H  0.84567580  0.48293582  0.16459138     0.08300
H1207       H  0.80316664  0.45417085  0.14786080     0.08300
H1208       H  0.72671725  0.62391454  0.23420039     0.08300
H1209       H  0.68374207  0.59393786  0.22108394     0.08300
H1210       H  0.70776350  0.62456466  0.18381924     0.05100
C1211       C  0.85909815  0.60679057  0.29557022    -0.20700
C1212       C  0.83955710  0.58365782  0.32516971    -0.07300
C1213       C  0.85984006  0.55170081  0.34332352     0.13600
C1214       C  0.89667350  0.54088020  0.32842104    -0.20800
C1215       C  0.91416910  0.56103774  0.29569305    -0.07300
C1216       C  0.89541783  0.59495771  0.27954209     0.13600
C1217       C  0.91282980  0.61790985  0.24486430    -0.24100
H1218       H  0.84324912  0.63105500  0.28115192     0.14900
H1219       H  0.91176233  0.51570987  0.34208206     0.14900
C1220       C  0.84155383  0.52693436  0.37635146    -0.24100
H1221       H  0.89431384  0.64385080  0.23614701     0.05100
H1222       H  0.91495727  0.59791482  0.21857231     0.08300
H1223       H  0.94273821  0.62936807  0.25272251     0.08300
H1224       H  0.81481846  0.51092901  0.36510975     0.08300
H1225       H  0.83343382  0.54669189  0.40151006     0.08300
H1226       H  0.86225553  0.50403511  0.38812171     0.05100
C1227       C  0.51375989  0.70304032  0.36405130    -0.20700
C1228       C  0.55346934  0.70037900  0.35380101    -0.07300
C1229       C  0.57638469  0.66999748  0.37187055     0.13600
C1230       C  0.55954968  0.64436805  0.40118570    -0.20800
C1231       C  0.51931573  0.64674548  0.41219096    -0.07300
C1232       C  0.49593804  0.67617515  0.39136939     0.13600
C1233       C  0.45161357  0.67946215  0.39567395    -0.24100
H1234       H  0.49602775  0.72557498  0.34909177     0.14900
H1235       H  0.57853328  0.62237270  0.41471680     0.14900
C1236       C  0.61902966  0.66501535  0.36068829    -0.24100
H1237       H  0.44284238  0.68603723  0.42664975     0.05100
H1238       H  0.43693019  0.65175822  0.38504570     0.08300
H1239       H  0.43936704  0.70406694  0.37697631     0.08300
H1240       H  0.63566632  0.69324285  0.36654490     0.08300
H1241       H  0.62111488  0.65761810  0.32847592     0.08300
H1242       H  0.63321520  0.64050710  0.37800298     0.05100
C1243       C  0.60418536  0.76501107  0.15295563    -0.20700
C1244       C  0.56380782  0.76268947  0.14346952    -0.07300
C1245       C  0.53866643  0.73902878  0.16802611     0.13600
C1246       C  0.55372306  0.72117338  0.20287715    -0.20800
C1247       C  0.59268718  0.72845012  0.21535126    -0.07300
C1248       C  0.61895455  0.74773365  0.18849890     0.13600
C1249       C  0.66223254  0.75161157  0.19871185    -0.24100
H1250       H  0.62416954  0.78005985  0.13246155     0.14900
H1251       H  0.53339545  0.70659879  0.22338908     0.14900
C1252       C  0.49508244  0.73502844  0.15932222    -0.24100
H1253       H  0.67886512  0.76702588  0.17448481     0.05100
H1254       H  0.67484210  0.72131227  0.20302610     0.08300
H1255       H  0.66653124  0.76902636  0.22660851     0.08300
H1256       H  0.48963845  0.71954914  0.13052245     0.08300
H1257       H  0.48237910  0.76535394  0.15827934     0.08300
H1258       H  0.47942483  0.71764673  0.18290677     0.05100
C1259       C  0.60073899  0.86165501  0.27672604    -0.20700
C1260       C  0.57083980  0.83682757  0.29280912    -0.07300
C1261       C  0.53140391  0.85030995  0.29145082     0.13600
C1262       C  0.52328163  0.88852837  0.27554038    -0.20800
C1263       C  0.55331569  0.91327748  0.25975672    -0.07300
C1264       C  0.59242887  0.89936999  0.26010384     0.13600
C1265       C  0.62561126  0.92495750  0.24397869    -0.24100
H1266       H  0.63077653  0.85074558  0.27594727     0.14900
H1267       H  0.49345658  0.89993805  0.27686056     0.14900
C1268       C  0.49769694  0.82418546  0.30561008    -0.24100
H1269       H  0.65458153  0.90982762  0.24661550     0.05100
H1270       H  0.62749633  0.95329173  0.26088775     0.08300
H1271       H  0.61995324  0.93188204  0.21191778     0.08300
H1272       H  0.50187928  0.81676847  0.33778369     0.08300
H1273       H  0.49643745  0.79612214  0.28795911     0.08300
H1274       H  0.46881672  0.83933550  0.30206111     0.05100
C1275       C  0.55260789  0.67477889  0.71659614    -0.20700
C1276       C  0.51633204  0.69285228  0.70802802    -0.07300
C1277       C  0.49453298  0.67952719  0.67417111     0.13600
C1278       C  0.51062773  0.65037471  0.64860191    -0.20800
C1279       C  0.54835051  0.63428750  0.65552334    -0.07300
C1280       C  0.56942140  0.64695767  0.69039043     0.13600
C1281       C  0.61109320  0.63421499  0.69968014    -0.24100
H1282       H  0.56935051  0.68451040  0.74266454     0.14900
H1283       H  0.49472164  0.64210846  0.62162221     0.14900
C1284       C  0.45427773  0.69607768  0.66491202    -0.24100
H1285       H  0.61183393  0.61808221  0.72882669     0.05100
H1286       H  0.63064299  0.66104057  0.70180260     0.08300
H1287       H  0.62337160  0.61440359  0.67669040     0.08300
H1288       H  0.45659606  0.72868021  0.65857035     0.08300
H1289       H  0.43452874  0.69095344  0.69083340     0.08300
H1290       H  0.44053284  0.68134235  0.63846101     0.05100
C1291       C  0.53272296  0.84788283  0.73981044    -0.20700
C1292       C  0.49267683  0.83655697  0.73872261    -0.07300
C1293       C  0.46436492  0.86436997  0.75204757     0.13600
C1294       C  0.47682792  0.90118636  0.76848708    -0.20800
C1295       C  0.51699937  0.91143691  0.77168849    -0.07300
C1296       C  0.54512170  0.88473919  0.75617096     0.13600
C1297       C  0.58856406  0.89446245  0.75847787    -0.24100
H1298       H  0.55474004  0.82623131  0.73137765     0.14900
H1299       H  0.45503362  0.92244390  0.77823346     0.14900
C1300       C  0.42081872  0.85452274  0.74987155    -0.24100
H1301       H  0.60670960  0.87033295  0.74553906     0.05100
H1302       H  0.59723627  0.89791176  0.79036713     0.08300
H1303       H  0.59515633  0.92258962  0.74184214     0.08300
H1304       H  0.41370642  0.82807707  0.76884187     0.08300
H1305       H  0.41228269  0.84798014  0.71841129     0.08300
H1306       H  0.40264431  0.87983740  0.76031558     0.05100
C1307       C  0.53039523  0.76742469  0.85191283    -0.20700
C1308       C  0.49309571  0.75133045  0.84165602    -0.07300
C1309       C  0.46128161  0.75670058  0.86798202     0.13600
C1310       C  0.46778729  0.77661023  0.90435905    -0.20800
C1311       C  0.50505655  0.79284946  0.91446112    -0.07300
C1312       C  0.53636141  0.78905283  0.88737396     0.13600
C1313       C  0.57606401  0.80799062  0.89608992    -0.24100
H1314       H  0.55413166  0.76604238  0.83038537     0.14900
H1315       H  0.44412156  0.77794022  0.92595514     0.14900
C1316       C  0.42034906  0.74187676  0.85724836    -0.24100
H1317       H  0.59760791  0.80199639  0.87204263     0.05100
H1318       H  0.58820661  0.79626697  0.92467205     0.08300
H1319       H  0.57273180  0.84091403  0.89863238     0.08300
H1320       H  0.42089977  0.70907165  0.85209513     0.08300
H1321       H  0.40969065  0.75711739  0.82963648     0.08300
H1322       H  0.39893274  0.74784856  0.88142858     0.05100
C1323       C  0.70781138  0.70194368  0.56212661    -0.20700
C1324       C  0.71319667  0.70696847  0.52110151    -0.07300
C1325       C  0.68633126  0.68759538  0.49472371     0.13600
C1326       C  0.65519873  0.66311754  0.51000257    -0.20800
C1327       C  0.64975704  0.65716116  0.55158566    -0.07300
C1328       C  0.67714111  0.67774718  0.57789081     0.13600
C1329       C  0.67558624  0.67484793  0.62314749    -0.24100
H1330       H  0.72834183  0.71705082  0.58221490     0.14900
H1331       H  0.63603449  0.64785672  0.48892740     0.14900
C1332       C  0.69076321  0.69262463  0.45024255    -0.24100
H1333       H  0.64861347  0.68898383  0.63456872     0.05100
H1334       H  0.70066851  0.69105844  0.63762108     0.08300
H1335       H  0.67748512  0.64352679  0.63379663     0.08300
H1336       H  0.72006826  0.68157577  0.44092201     0.08300
H1337       H  0.68825118  0.72477583  0.44201292     0.08300
H1338       H  0.66766555  0.67560574  0.43362333     0.05100
C1339       C  0.87929119  0.74269816  0.45712419    -0.20700
C1340       C  0.85597590  0.72828997  0.48904789    -0.07300
C1341       C  0.87380098  0.72467570  0.52727710     0.13600
C1342       C  0.91225775  0.73979380  0.53355693    -0.20800
C1343       C  0.93325827  0.75918006  0.50287342    -0.07300
C1344       C  0.91761077  0.75837550  0.46366998     0.13600
C1345       C  0.94113130  0.77454551  0.42898405    -0.24100
H1346       H  0.86577264  0.74590781  0.42775648     0.14900
H1347       H  0.92582915  0.73710868  0.56285680     0.14900
C1348       C  0.85114624  0.70783996  0.56229014    -0.24100
H1349       H  0.92452960  0.77187733  0.40028678     0.05100
H1350       H  0.96900471  0.75758748  0.42623630     0.08300
H1351       H  0.94835995  0.80665982  0.43393734     0.08300
H1352       H  0.84083431  0.67695884  0.55534393     0.08300
H1353       H  0.82527635  0.72684090  0.56866289     0.08300
H1354       H  0.86969062  0.70658067  0.58985478     0.05100
C1355       C  0.79298979  0.85101113  0.54150643    -0.20700
C1356       C  0.78025294  0.83983856  0.50300114    -0.07300
C1357       C  0.78786730  0.86610818  0.47058610     0.13600
C1358       C  0.80583314  0.90355082  0.47768222    -0.20800
C1359       C  0.81711591  0.91543988  0.51638740    -0.07300
C1360       C  0.81138145  0.88833291  0.54847967     0.13600
C1361       C  0.82377124  0.89949636  0.59035808    -0.24100
H1362       H  0.79004206  0.82970770  0.56595785     0.14900
H1363       H  0.80858642  0.92481545  0.45323695     0.14900
C1364       C  0.77677414  0.85460023  0.42838365    -0.24100
H1365       H  0.81743144  0.87504684  0.61214157     0.05100
H1366       H  0.80763995  0.92642258  0.59983645     0.08300
H1367       H  0.85598468  0.90608062  0.59118706     0.08300
H1368       H  0.74457888  0.84809023  0.42657676     0.08300
H1369       H  0.79325003  0.82761374  0.41934865     0.08300
H1370       H  0.78375312  0.87895659  0.40668544     0.05100
C1371       C  0.03415069  0.93903185  0.88487527    -0.20700
C1372       C  0.04449819  0.92786933  0.92439731    -0.07300
C1373       C  0.03713487  0.88717160  0.93546630     0.13600
C1374       C  0.02556554  0.85896255  0.90570652    -0.20800
C1375       C  0.02027416  0.86961525  0.86495545    -0.07300
C1376       C  0.02357057  0.91103134  0.85511153     0.13600
C1377       C  0.01695888  0.92678575  0.81319595    -0.24100
H1378       H  0.03638985  0.97034531  0.87639608     0.14900
H1379       H  0.02140430  0.82792754  0.91445131     0.14900
C1380       C  0.04087877  0.87249483  0.97814107    -0.24100
H1381       H  0.02000907  0.95987729  0.81150386     0.05100
H1382       H  0.98676773  0.91862917  0.80260707     0.08300
H1383       H  0.03950716  0.91465165  0.79280890     0.08300
H1384       H  0.01920635  0.88758535  0.99737916     0.08300
H1385       H  0.07085205  0.87787429  0.99023793     0.08300
H1386       H  0.03484219  0.83982190  0.98062198     0.05100
C1387       C  0.18247649  0.86110360  0.00536491    -0.20700
C1388       C  0.19820657  0.86313598  0.04411489    -0.07300
C1389       C  0.18235675  0.89128286  0.07091734     0.13600
C1390       C  0.15094828  0.91633858  0.05844258    -0.20800
C1391       C  0.13707192  0.91661820  0.01859302    -0.07300
C1392       C  0.15406940  0.88866262  0.99155453     0.13600
C1393       C  0.14613257  0.89008081  0.94698144    -0.24100
H1394       H  0.19549960  0.84038711  0.98453490     0.14900
H1395       H  0.13993435  0.93862197  0.07884227     0.14900
C1396       C  0.20014594  0.89632400  0.11203286    -0.24100
H1397       H  0.16241425  0.86650260  0.93087981     0.05100
H1398       H  0.15576999  0.91920236  0.93413745     0.08300
H1399       H  0.11463295  0.88519915  0.94030708     0.08300
H1400       H  0.23195303  0.90432042  0.10964741     0.08300
H1401       H  0.19693920  0.86800288  0.12933272     0.08300
H1402       H  0.18584094  0.92072035  0.12865241     0.05100
C1403       C  0.19135021  0.03836330  0.93876527    -0.20700
C1404       C  0.15072179  0.03559693  0.92918880    -0.07300
C1405       C  0.13873604  0.05284650  0.89205222     0.13600
C1406       C  0.16720360  0.06168103  0.86258879    -0.20800
C1407       C  0.20808019  0.05735233  0.86985297    -0.07300
C1408       C  0.22000499  0.04900908  0.90999879     0.13600
C1409       C  0.26257494  0.05134967  0.92351237    -0.24100
H1410       H  0.20122915  0.03145248  0.96884219     0.14900
H1411       H  0.15695065  0.07166079  0.83342477     0.14900
C1412       C  0.09624031  0.06222892  0.88218133    -0.24100
H1413       H  0.26567141  0.04746800  0.95642734     0.05100
H1414       H  0.27518875  0.08121133  0.91574455     0.08300
H1415       H  0.27985502  0.02726002  0.90947521     0.08300
H1416       H  0.07622184  0.05734919  0.90782281     0.08300
H1417       H  0.08587007  0.04360413  0.85667960     0.08300
H1418       H  0.09395362  0.09428239  0.87352464     0.05100
C1419       C  0.89878119  0.89635247  0.06157473    -0.20700
C1420       C  0.92263253  0.91654674  0.03290874    -0.07300
C1421       C  0.91645486  0.90532035  0.99212305     0.13600
C1422       C  0.88801960  0.87510515  0.98222987    -0.20800
C1423       C  0.86480492  0.85589990  0.01150108    -0.07300
C1424       C  0.87035918  0.86706663  0.05162335     0.13600
C1425       C  0.84619662  0.84807305  0.08440676    -0.24100
H1426       H  0.90234335  0.90374256  0.09285240     0.14900
H1427       H  0.88387159  0.86629612  0.95130148     0.14900
C1428       C  0.93891148  0.92421436  0.95849713    -0.24100
H1429       H  0.85506190  0.85920940  0.11446078     0.05100
H1430       H  0.84981486  0.81506844  0.08426778     0.08300
H1431       H  0.81472449  0.85548850  0.07962700     0.08300
H1432       H  0.97073350  0.91954102  0.96293834     0.08300
H1433       H  0.93249925  0.95636389  0.95745267     0.08300
H1434       H  0.93056560  0.91145345  0.92894851     0.05100
C1435       C  0.91446040  0.03472716  0.20496302    -0.20700
C1436       C  0.87497432  0.04383598  0.19514995    -0.07300
C1437       C  0.86563731  0.04943900  0.15394197     0.13600
C1438       C  0.89385511  0.04029734  0.12461207    -0.20800
C1439       C  0.93139849  0.02487666  0.13442502    -0.07300
C1440       C  0.94289587  0.02619117  0.17547657     0.13600
C1441       C  0.98460103  0.01914909  0.18934537    -0.24100
H1442       H  0.92308612  0.03302186  0.23621047     0.14900
H1443       H  0.88554532  0.04302827  0.09331349     0.14900
C1444       C  0.82615473  0.06497215  0.14000949    -0.24100
H1445       H  0.98786633  0.02221066  0.22228397     0.05100
H1446       H  0.00469879  0.04167186  0.17559874     0.08300
H1447       H  0.99365872  0.98864731  0.18190901     0.08300
H1448       H  0.81963414  0.09347588  0.15543046     0.08300
H1449       H  0.80255468  0.04248079  0.14596883     0.08300
H1450       H  0.82570218  0.07113121  0.10729488     0.05100
C1451       C  0.00908577  0.87934260  0.19700829    -0.20700
C1452       C  0.04983857  0.87661571  0.20338348    -0.07300
C1453       C  0.07510794  0.90260545  0.18143788     0.13600
C1454       C  0.05923860  0.92764540  0.15089498    -0.20800
C1455       C  0.01836273  0.92860563  0.14297519    -0.07300
C1456       C  0.99303863  0.90583753  0.16853246     0.13600
C1457       C  0.94868709  0.90908610  0.16737361    -0.24100
H1458       H  0.98937658  0.86079013  0.21483109     0.14900
H1459       H  0.07894362  0.94521893  0.13228436     0.14900
C1460       C  0.11884859  0.90301097  0.18937654    -0.24100
H1461       H  0.93786965  0.91629731  0.19774015     0.05100
H1462       H  0.93533415  0.88015444  0.15775033     0.08300
H1463       H  0.93824632  0.93320268  0.14736834     0.08300
H1464       H  0.13129998  0.87315611  0.18284601     0.08300
H1465       H  0.12475129  0.91059375  0.22117818     0.08300
H1466       H  0.13399418  0.92590266  0.17069844     0.05100
C1467       C  0.94081525  0.01675209  0.89301992    -0.20700
C1468       C  0.92979599  0.03020710  0.93112037    -0.07300
C1469       C  0.89014312  0.02239583  0.94286494     0.13600
C1470       C  0.86195324  0.00948438  0.91392665    -0.20800
C1471       C  0.87218587  0.00170192  0.87384346    -0.07300
C1472       C  0.91311281  0.00337633  0.86427847     0.13600
C1473       C  0.92873879  0.99251866  0.82369320    -0.24100
H1474       H  0.97166675  0.01869878  0.88478003     0.14900
H1475       H  0.83149761  0.00549746  0.92290793     0.14900
C1476       C  0.87727269  0.02484918  0.98576553    -0.24100
H1477       H  0.96135256  0.99540559  0.82238630     0.05100
H1478       H  0.91681964  0.01313248  0.80051139     0.08300
H1479       H  0.92090999  0.96094529  0.81666663     0.08300
H1480       H  0.88189739  0.05508268  0.99791429     0.08300
H1481       H  0.89411973  0.00296240  0.00396118     0.08300
H1482       H  0.84544740  0.01729776  0.98916968     0.05100
C1483       C  0.85048360  0.16163103  0.01317539    -0.20700
C1484       C  0.85486708  0.18127632  0.04985187    -0.07300
C1485       C  0.88853637  0.17222597  0.07380035     0.13600
C1486       C  0.91683894  0.14456396  0.06006046    -0.20800
C1487       C  0.91371948  0.12691975  0.02202993    -0.07300
C1488       C  0.87991412  0.13656709  0.99815226     0.13600
C1489       C  0.87452816  0.12371339  0.95532731    -0.24100
H1490       H  0.82522954  0.16855164  0.99426228     0.14900
H1491       H  0.94318219  0.13904199  0.07785917     0.14900
C1492       C  0.89531723  0.19200215  0.11360487    -0.24100
H1493       H  0.87109706  0.15051047  0.93582882     0.05100
H1494       H  0.84742030  0.10488950  0.95245230     0.08300
H1495       H  0.89962716  0.10672133  0.94405078     0.08300
H1496       H  0.86988961  0.18584518  0.13356013     0.08300
H1497       H  0.89938531  0.22477343  0.10960587     0.08300
H1498       H  0.92245099  0.18068196  0.12831044     0.05100
C1499       C  0.06040282  0.15925135  0.92319350    -0.20700
C1500       C  0.01952074  0.14988676  0.92401613    -0.07300
C1501       C  0.99467367  0.17050032  0.89562115     0.13600
C1502       C  0.01142352  0.19680615  0.86725231    -0.20800
C1503       C  0.05176344  0.20568002  0.86669605    -0.07300
C1504       C  0.07652019  0.18717928  0.89551410     0.13600
C1505       C  0.12022328  0.19602635  0.89647011    -0.24100
H1506       H  0.08042163  0.14502532  0.94395873     0.14900
H1507       H  0.99247935  0.21172059  0.84561800     0.14900
C1508       C  0.95000842  0.16651011  0.89442982    -0.24100
H1509       H  0.13563941  0.17835467  0.92004111     0.05100
H1510       H  0.12547795  0.22824204  0.90280802     0.08300
H1511       H  0.13331610  0.18853128  0.86714722     0.08300
H1512       H  0.93709075  0.17737521  0.92252113     0.08300
H1513       H  0.94008369  0.13551861  0.88838290     0.08300
H1514       H  0.93670099  0.18507742  0.87025170     0.05100
C1515       C  0.16903543  0.13342174  0.02907552    -0.20700
C1516       C  0.13083194  0.14157730  0.04319924    -0.07300
C1517       C  0.11831825  0.18194172  0.04093336     0.13600
C1518       C  0.14670838  0.21285166  0.03469128    -0.20800
C1519       C  0.18696624  0.20458468  0.02822996    -0.07300
C1520       C  0.19718467  0.16395821  0.02191788     0.13600
C1521       C  0.23757714  0.15189292  0.00793945    -0.24100
H1522       H  0.17803708  0.10246468  0.02666368     0.14900
H1523       H  0.13746223  0.24374655  0.03628947     0.14900
C1524       C  0.07554429  0.19306704  0.04404438    -0.24100
H1525       H  0.23848588  0.11958982  0.00023050     0.05100
H1526       H  0.25992986  0.15691039  0.03188312     0.08300
H1527       H  0.24559956  0.16920838  0.98066468     0.08300
H1528       H  0.07134829  0.22584636  0.04057729     0.08300
H1529       H  0.06347648  0.18428423  0.07334330     0.08300
H1530       H  0.05836934  0.17813652  0.01981771     0.05100
C1531       C  0.13109664  0.02181990  0.18576331    -0.20700
C1532       C  0.14014457  0.02956472  0.14525778    -0.07300
C1533       C  0.17807541  0.01747839  0.13218846     0.13600
C1534       C  0.20754515  0.00766335  0.16061850    -0.20800
C1535       C  0.20005906  0.00611580  0.20210295    -0.07300
C1536       C  0.16013186  0.01051975  0.21417689     0.13600
C1537       C  0.14716804  0.00340187  0.25670948    -0.24100
H1538       H  0.10106181  0.02534656  0.19579281     0.14900
H1539       H  0.23684669  0.00115445  0.14982159     0.14900
C1540       C  0.18881515  0.01415383  0.08859768    -0.24100
H1541       H  0.11460661  0.00541690  0.25978741     0.05100
H1542       H  0.16049861  0.02634859  0.27670208     0.08300
H1543       H  0.15583691  0.97291428  0.26663912     0.08300
H1544       H  0.21181593  0.03684522  0.08100977     0.08300
H1545       H  0.16310550  0.01774193  0.06821388     0.08300
H1546       H  0.20098386  0.98403537  0.08288027     0.05100
C1547       C  0.04803186  0.20509545  0.17836234    -0.20700
C1548       C  0.01052907  0.20023297  0.19507863    -0.07300
C1549       C  0.98829376  0.16542936  0.18492826     0.13600
C1550       C  0.00348011  0.13750278  0.15720073    -0.20800
C1551       C  0.04177221  0.14166695  0.14130955    -0.07300
C1552       C  0.06472783  0.17561599  0.15385420     0.13600
C1553       C  0.10783641  0.18134967  0.14438705    -0.24100
H1554       H  0.06573781  0.23102548  0.18680966     0.14900
H1555       H  0.98625888  0.11097352  0.14979761     0.14900
C1556       C  0.94895211  0.15717694  0.20415841    -0.24100
H1557       H  0.12511625  0.18349448  0.17271008     0.05100
H1558       H  0.11215288  0.20953484  0.12708632     0.08300
H1559       H  0.12022594  0.15659680  0.12732292     0.08300
H1560       H  0.92890278  0.18281524  0.19905582     0.08300
H1561       H  0.95314132  0.15281217  0.23686239     0.08300
H1562       H  0.93455414  0.12974143  0.19193299     0.05100
loop_ 
_geom_bond_atom_site_label_1 
_geom_bond_atom_site_label_2 
_geom_bond_distance 
_geom_bond_site_symmetry_2 
_ccdc_geom_bond_type 
C1            C2   1.541       .  S
C1            C7   1.533       .  S
C1            C5   1.534       .  S
C1         C1532   1.560       .  S
C2            H9   1.085       .  S
C2            C3   1.360       .  D
C3            C4   1.571       .  S
C3         C1551   1.520       .  S
C4            C8   1.563       .  S
C4            C6   1.588       .  S
C4           H10   1.102       .  S
C5           H11   1.084   1_545  S
C5            C6   1.379       .  D
C6           C49   1.583       .  S
C7           H12   1.085       .  S
C7            C8   1.372       .  D
C8         C1516   1.522       .  S
C13          C14   1.516   1_455  S
C13          C19   1.531   1_455  S
C13          C17   1.544       .  S
C13        C1500   1.562       .  S
C14          H21   1.086       .  S
C14          C15   1.353   1_556  D
C15          C16   1.577   1_554  S
C15        C1487   1.509       .  S
C16          C20   1.557       .  S
C16          C18   1.596   1_656  S
C16          H22   1.101   1_556  S
C17          H23   1.066       .  S
C17          C18   1.391   1_556  D
C18          C49   1.612       .  S
C19          H24   1.085       .  S
C19          C20   1.370       .  D
C20        C1468   1.523       .  S
C25          C26   1.539       .  S
C25          C31   1.532       .  S
C25          C29   1.558       .  S
C25        C1420   1.575       .  S
C26          H33   1.086       .  S
C26          C27   1.368   1_565  D
C27          C28   1.556   1_545  S
C27        C1439   1.527       .  S
C28          C32   1.561   1_655  S
C28          C30   1.588   1_665  S
C28          H34   1.099   1_665  S
C29          H35   1.078   1_554  S
C29          C30   1.390   1_665  D
C30          C49   1.590       .  S
C31          H36   1.088       .  S
C31          C32   1.358   1_655  D
C32        C1455   1.512       .  S
C37          C38   1.539   1_545  S
C37          C43   1.522   1_545  S
C37          C41   1.525       .  S
C37        C1404   1.559       .  S
C38          H45   1.085       .  S
C38          C39   1.372       .  D
C39          C40   1.563       .  S
C39        C1372   1.534       .  S
C40          C44   1.584   1_556  S
C40          C42   1.604   1_566  S
C40          H46   1.102   1_556  S
C41          H47   1.073       .  S
C41          C42   1.383   1_556  D
C42          C49   1.615       .  S
C43          H48   1.085       .  S
C43          C44   1.357   1_556  D
C44        C1391   1.511       .  S
C50          N51   1.374       .  A
C50          N55   1.375       .  A
C50        C1324   1.503       .  S
N51          C52   1.367       .  A
C52          N53   1.335       .  A
C52        C1356   1.469       .  S
N53          C54   1.338       .  A
C54          N55   1.369       .  A
C54        C1340   1.473       .  S
C56          N57   1.370       .  A
C56          N61   1.375       .  A
C56        C1276   1.499       .  S
N57          C58   1.363       .  A
C58          N59   1.336       .  A
C58        C1308   1.462       .  S
N59          C60   1.337       .  A
C60          N61   1.369       .  A
C60        C1292   1.475       .  S
C62          N63   1.367       .  A
C62          N67   1.373       .  A
C62        C1228   1.496       .  S
N63          C64   1.363       .  A
C64          N65   1.341       .  A
C64        C1247   1.466       .  S
N65          C66   1.339       .  A
C66          N67   1.367       .  A
C66        C1260   1.480       .  S
C68          N69   1.374       .  A
C68          N73   1.370       .  A
C68        C1183   1.500       .  S
N69          C70   1.367       .  A
C70          N71   1.336       .  A
C70        C1212   1.469       .  S
N71          C72   1.331       .  A
C72          N73   1.356       .  A
C72        C1196   1.454       .  S
O74         Ni82   1.966       .  S
O74          C84   1.294       .  A
O75         Ni82   1.970       .  S
O75          C85   1.295       .  A
O76         Ni82   1.860       .  S
O76          C86   1.264       .  A
O77         Ni82   1.849   1_556  S
O77          C87   1.263       .  A
O78         Ni83   1.962   1_556  S
O78          C87   1.293       .  A
O79         Ni83   1.964       .  S
O79          C86   1.294       .  A
O80         Ni83   1.858       .  S
O80          C85   1.266       .  A
O81         Ni83   1.873       .  S
O81          C84   1.266       .  A
Ni82        Ni83   2.388       .  S
C84        C1164   1.476       .  S
C85        C1151   1.480       .  S
C86        C1244   1.474       .  S
C87        C1311   1.462       .  S
O88         Ni96   1.963       .  S
O88          C98   1.294       .  A
O89         Ni96   1.964       .  S
O89          C99   1.294       .  A
O90         Ni96   1.860   1_556  S
O90         C100   1.264       .  A
O91         Ni96   1.851       .  S
O91         C101   1.264       .  A
O92         Ni97   1.961       .  S
O92         C101   1.293       .  A
O93         Ni97   1.963   1_556  S
O93         C100   1.294       .  A
O94         Ni97   1.861       .  S
O94          C99   1.264       .  A
O95         Ni97   1.863       .  S
O95          C98   1.265       .  A
Ni96        Ni97   2.390       .  S
C98        C1132   1.476       .  S
C99        C1116   1.467       .  S
C100       C1100   1.468       .  S
C101       C1199   1.465       .  S
C102        N103   1.371       .  A
C102        N107   1.374   1_554  A
C102       C1423   1.499       .  S
N103        C104   1.364   1_554  A
C104        N105   1.338       .  A
C104       C1119   1.463   1_556  S
N105        C106   1.338       .  A
C106        N107   1.370       .  A
C106       C1148   1.483       .  S
C108        N109   1.381       .  A
C108        N113   1.376       .  A
C108       C1068   1.529       .  S
N109        C110   1.369       .  A
C110        N111   1.334       .  A
C110       C1084   1.483       .  S
N111        C112   1.334       .  A
C112        N113   1.365       .  A
C112       C1103   1.463       .  S
C114        N115   1.380       .  A
C114        N119   1.374       .  A
C114       C1020   1.524       .  S
N115        C116   1.368       .  A
C116        N117   1.333       .  A
C116       C1052   1.471       .  S
N117        C118   1.334       .  A
C118        N119   1.365       .  A
C118       C1036   1.470       .  S
O120       Ni128   1.973       .  S
O120        C130   1.296       .  A
O121       Ni128   1.968       .  S
O121        C131   1.294       .  A
O122       Ni128   1.875   1_655  S
O122        C132   1.266       .  A
O123       Ni128   1.856       .  S
O123        C133   1.264       .  A
O124       Ni129   1.963       .  S
O124        C133   1.294       .  A
O125       Ni129   1.965   1_655  S
O125        C132   1.294       .  A
O126       Ni129   1.860       .  S
O126        C131   1.264       .  A
O127       Ni129   1.860       .  S
O127        C130   1.266       .  A
Ni128      Ni129   2.388       .  S
C130        C988   1.491       .  S
C131       C1004   1.471       .  S
C132       C1343   1.476       .  S
C133       C1039   1.469       .  S
O134       Ni142   1.975       .  S
O134        C144   1.297       .  A
O135       Ni142   1.973       .  S
O135        C145   1.296       .  A
O136       Ni142   1.866       .  S
O136        C146   1.265       .  A
O137       Ni142   1.875   1_655  S
O137        C147   1.266       .  A
O138       Ni143   1.977   1_655  S
O138        C147   1.297       .  A
O139       Ni143   1.975       .  S
O139        C146   1.296       .  A
O140       Ni143   1.853       .  S
O140        C145   1.262       .  A
O141       Ni143   1.856       .  S
O141        C144   1.262       .  A
Ni142      Ni143   2.387       .  S
C144        C956   1.485       .  S
C145        C975   1.473       .  S
C146        C940   1.478       .  S
C147       C1087   1.488       .  S
C148        N149   1.375       .  A
C148        N153   1.375       .  A
C148       C1375   1.525       .  S
N149        C150   1.369   1_455  A
C150        N151   1.336       .  A
C150        C972   1.471       .  S
N151        C152   1.332   1_655  A
C152        N153   1.364       .  A
C152       C1007   1.469       .  S
C154        N155   1.376       .  A
C154        N159   1.378       .  A
C154        C908   1.532       .  S
N155        C156   1.368       .  A
C156        N157   1.335       .  A
C156        C943   1.474       .  S
N157        C158   1.337       .  A
C158        N159   1.371       .  A
C158        C924   1.479       .  S
C160        N161   1.375       .  A
C160        N165   1.379       .  A
C160        C860   1.523       .  S
N161        C162   1.365       .  A
C162        N163   1.337       .  A
C162        C876   1.464       .  S
N163        C164   1.335       .  A
C164        N165   1.368       .  A
C164        C892   1.486       .  S
O166       Ni174   1.962       .  S
O166        C176   1.293       .  A
O167       Ni174   1.963       .  S
O167        C177   1.295       .  A
O168       Ni174   1.870       .  S
O168        C178   1.265       .  A
O169       Ni174   1.853   1_565  S
O169        C179   1.264       .  A
O170       Ni175   1.967   1_565  S
O170        C179   1.294       .  A
O171       Ni175   1.963       .  S
O171        C178   1.294       .  A
O172       Ni175   1.869       .  S
O172        C177   1.266       .  A
O173       Ni175   1.871       .  S
O173        C176   1.266       .  A
Ni174      Ni175   2.389       .  S
C176        C828   1.472       .  S
C177        C844   1.487       .  S
C178        C879   1.472       .  S
C179       C1359   1.466       .  S
O180       Ni188   1.970       .  S
O180        C190   1.295       .  A
O181       Ni188   1.973   1_565  S
O181        C191   1.296       .  A
O182       Ni188   1.866       .  S
O182        C192   1.265       .  A
O183       Ni188   1.855       .  S
O183        C193   1.265       .  A
O184       Ni189   1.969       .  S
O184        C193   1.295       .  A
O185       Ni189   1.966       .  S
O185        C192   1.294       .  A
O186       Ni189   1.870   1_565  S
O186        C191   1.266       .  A
O187       Ni189   1.876       .  S
O187        C190   1.267       .  A
Ni188      Ni189   2.388       .  S
C190        C780   1.481       .  S
C191       C1295   1.479       .  S
C192        C796   1.472       .  S
C193        C815   1.482       .  S
C194        N195   1.375       .  A
C194        N199   1.371       .  A
C194       C1471   1.520   1_565  S
N195        C196   1.367       .  A
C196        N197   1.338       .  A
C196        C799   1.466       .  S
N197        C198   1.336       .  A
C198        N199   1.362       .  A
C198        C847   1.476       .  S
C200        N201   1.377       .  A
C200        N205   1.375       .  A
C200        C748   1.510       .  S
N201        C202   1.371       .  A
C202        N203   1.338       .  A
C202        C783   1.477       .  S
N203        C204   1.337       .  A
C204        N205   1.369       .  A
C204        C764   1.477       .  S
O206       Ni214   1.968       .  S
O206        C216   1.295       .  A
O207       Ni214   1.973   1_556  S
O207        C217   1.296       .  A
O208       Ni214   1.870       .  S
O208        C218   1.266       .  A
O209       Ni214   1.852       .  S
O209        C219   1.264       .  A
O210       Ni215   1.967       .  S
O210        C219   1.294       .  A
O211       Ni215   1.969       .  S
O211        C218   1.295       .  A
O212       Ni215   1.876   1_556  S
O212        C217   1.267       .  A
O213       Ni215   1.875       .  S
O213        C216   1.267       .  A
Ni214      Ni215   2.387       .  S
C216        C700   1.478       .  S
C217        C927   1.492       .  S
C218        C719   1.479       .  S
C219        C732   1.468       .  S
C220        N221   1.376       .  A
C220        N225   1.372       .  A
C220       C1388   1.497       .  S
N221        C222   1.368       .  A
C222        N223   1.334       .  A
C222        C735   1.471       .  S
N223        C224   1.336       .  A
C224        N225   1.362       .  A
C224       C1167   1.463       .  S
O226       Ni234   1.968       .  S
O226        C236   1.295       .  A
O227       Ni234   1.969       .  S
O227        C237   1.295       .  A
O228       Ni234   1.848   1_655  S
O228        C238   1.264       .  A
O229       Ni234   1.857       .  S
O229        C239   1.263       .  A
O230       Ni235   1.967       .  S
O230        C239   1.294       .  A
O231       Ni235   1.969   1_655  S
O231        C238   1.295       .  A
O232       Ni235   1.859       .  S
O232        C237   1.265       .  A
O233       Ni235   1.873       .  S
O233        C236   1.266       .  A
Ni234      Ni235   2.389       .  S
C236        C668   1.478       .  S
C237        C684   1.477       .  S
C238       C1215   1.478       .  S
C239        C652   1.468       .  S
C240        N241   1.372       .  A
C240        N245   1.374       .  A
C240       C1452   1.498       .  S
N241        C242   1.362       .  A
C242        N243   1.335       .  A
C242        C687   1.467       .  S
N243        C244   1.340       .  A
C244        N245   1.370       .  A
C244        C991   1.483       .  S
C246        N247   1.372       .  A
C246        N251   1.378       .  A
C246        C636   1.502       .  S
N247        C248   1.365       .  A
C248        N249   1.335       .  A
C248        C655   1.465       .  S
N249        C250   1.336       .  A
C250        N251   1.370       .  A
C250        C703   1.480       .  S
O252       Ni260   1.972       .  S
O252        C262   1.296       .  A
O253       Ni260   1.968   1_556  S
O253        C263   1.294       .  A
O254       Ni260   1.859       .  S
O254        C264   1.263       .  A
O255       Ni260   1.863       .  S
O255        C265   1.265       .  A
O256       Ni261   1.969       .  S
O256        C265   1.295       .  A
O257       Ni261   1.970       .  S
O257        C264   1.296       .  A
O258       Ni261   1.875   1_556  S
O258        C263   1.267       .  A
O259       Ni261   1.868       .  S
O259        C262   1.265       .  A
Ni260      Ni261   2.385       .  S
C262        C591   1.481       .  S
C263        C767   1.479       .  S
C264        C620   1.481       .  S
C265        C607   1.476       .  S
C266        N267   1.372       .  A
C266        N271   1.375       .  A
C266       C1484   1.506       .  S
N267        C268   1.366       .  A
C268        N269   1.337       .  A
C268       C1135   1.468       .  S
N269        C270   1.335       .  A
C270        N271   1.364       .  A
C270        C623   1.467       .  S
O272       Ni280   1.961       .  S
O272        C282   1.293       .  A
O273       Ni280   1.966   1_565  S
O273        C283   1.294       .  A
O274       Ni280   1.867       .  S
O274        C284   1.266       .  A
O275       Ni280   1.869       .  S
O275        C285   1.265       .  A
O276       Ni281   1.963       .  S
O276        C285   1.295       .  A
O277       Ni281   1.958       .  S
O277        C284   1.292       .  A
O278       Ni281   1.860   1_565  S
O278        C283   1.265       .  A
O279       Ni281   1.873       .  S
O279        C282   1.266       .  A
Ni280      Ni281   2.389       .  S
C282        C540   1.472       .  S
C283       C1263   1.470       .  S
C284        C559   1.469       .  S
C285        C572   1.485       .  S
C286        N287   1.376       .  A
C286        N291   1.375       .  A
C286       C1436   1.516       .  S
N287        C288   1.366       .  A
C288        N289   1.335       .  A
C288        C831   1.466       .  S
N289        C290   1.336       .  A
C290        N291   1.364       .  A
C290        C575   1.472       .  S
C292        N293   1.379       .  A
C292        N297   1.372       .  A
C292        C527   1.513       .  S
N293        C294   1.371       .  A
C294        N295   1.337       .  A
C294        C588   1.480       .  S
N295        C296   1.337       .  A
C296        N297   1.362       .  A
C296        C543   1.464       .  S
O298       Ni306   1.968       .  S
O298        C308   1.295       .  A
O299       Ni306   1.969   1_565  S
O299        C309   1.295       .  A
O300       Ni306   1.864       .  S
O300        C310   1.265       .  A
O301       Ni306   1.859       .  S
O301        C311   1.264       .  A
O302       Ni307   1.966       .  S
O302        C311   1.294       .  A
O303       Ni307   1.966       .  S
O303        C310   1.294       .  A
O304       Ni307   1.868   1_565  S
O304        C309   1.265       .  A
O305       Ni307   1.860       .  S
O305        C308   1.266       .  A
Ni306      Ni307   2.389       .  S
C308        C476   1.484       .  S
C309       C1055   1.475       .  S
C310        C511   1.475       .  S
C311        C492   1.469       .  S
C312        N313   1.376       .  A
C312        N317   1.376       .  A
C312       C1407   1.518       .  S
N313        C314   1.364       .  A
C314        N315   1.335       .  A
C314        C508   1.463       .  S
N315        C316   1.333       .  A
C316        N317   1.365       .  A
C316        C812   1.473       .  S
O318       Ni326   1.970       .  S
O318        C328   1.295       .  A
O319       Ni326   1.970   1_655  S
O319        C329   1.296       .  A
O320       Ni326   1.863       .  S
O320        C330   1.265       .  A
O321       Ni326   1.851       .  S
O321        C331   1.264       .  A
O322       Ni327   1.974       .  S
O322        C331   1.297       .  A
O323       Ni327   1.969       .  S
O323        C330   1.295       .  A
O324       Ni327   1.870   1_655  S
O324        C329   1.266       .  A
O325       Ni327   1.878       .  S
O325        C328   1.267       .  A
Ni326      Ni327   2.387       .  S
C328        C428   1.482       .  S
C329        C895   1.482       .  S
C330        C447   1.476       .  S
C331        C463   1.485       .  S
C332        N333   1.372       .  A
C332        N337   1.370       .  A
C332       C1503   1.497       .  S
N333        C334   1.363       .  A
C334        N335   1.337       .  A
C334        C460   1.470       .  S
N335        C336   1.340       .  A
C336        N337   1.367       .  A
C336        C959   1.471       .  S
C338        N339   1.380       .  A
C338        N343   1.377       .  A
C338        C412   1.524       .  S
N339        C340   1.371       .  A
C340        N341   1.334       .  A
C340        C431   1.476       .  S
N341        C342   1.336       .  A
C342        N343   1.368       .  A
C342        C479   1.483       .  S
C344        N345   1.374       .  A
C344        N349   1.375       .  A
C344       C1548   1.505   1_655  S
N345        C346   1.368       .  A
C346        N347   1.338       .  A
C346        C444   1.478       .  S
N347        C348   1.337       .  A
C348        N349   1.368       .  A
C348        C671   1.474       .  S
C350        N351   1.374   1_565  A
C350        N355   1.373       .  A
C350       C1535   1.518   1_565  S
N351        C352   1.365   1_545  A
C352        N353   1.335       .  A
C352        C495   1.469   1_565  S
N353        C354   1.338       .  A
C354        N355   1.363       .  A
C354        C556   1.462       .  S
C356        N357   1.376       .  A
C356        N361   1.374       .  A
C356       C1519   1.513       .  S
N357        C358   1.366       .  A
C358        N359   1.337       .  A
C358        C716   1.464       .  S
N359        C360   1.334       .  A
C360        N361   1.363       .  A
C360        C604   1.467       .  S
C362        C363   1.533       .  S
C362        C368   1.544       .  S
C362        C366   1.550       .  S
C362        C911   1.579       .  S
C363        H370   1.084       .  S
C363        C364   1.358       .  D
C364        C365   1.569       .  S
C364        C751   1.525       .  S
C365        C369   1.570       .  S
C365        C367   1.605       .  S
C365        H371   1.075       .  S
C366        H372   1.083       .  S
C366        C367   1.394       .  D
C367        C410   1.633       .  S
C368        H373   1.084       .  S
C368        C369   1.368       .  D
C369        C415   1.536       .  S
C374        C375   1.525       .  S
C374        C380   1.519       .  S
C374        C378   1.519       .  S
C374       C1180   1.552       .  S
C375        H382   1.087       .  S
C375        C376   1.352       .  D
C376        C377   1.572       .  S
C376        C524   1.511       .  S
C377        C381   1.586       .  S
C377        C379   1.613       .  S
C377        H383   1.077       .  S
C378        H384   1.064       .  S
C378        C379   1.390       .  D
C379        C410   1.649       .  S
C380        H385   1.085       .  S
C380        C381   1.369       .  D
C381        C863   1.529       .  S
C386        C387   1.522       .  S
C386        C392   1.512       .  S
C386        C390   1.550       .  S
C386       C1327   1.571       .  S
C387        H394   1.086       .  S
C387        C388   1.365       .  D
C388        C389   1.569       .  S
C388       C1071   1.532       .  S
C389        C393   1.580       .  S
C389        C391   1.597       .  S
C389        H395   1.103       .  S
C390        H396   1.068       .  S
C390        C391   1.405       .  D
C391        C410   1.639       .  S
C392        H397   1.086       .  S
C392        C393   1.355       .  D
C393       C1279   1.502       .  S
C398        C399   1.527       .  S
C398        C404   1.515       .  S
C398        C402   1.544       .  S
C398       C1231   1.569       .  S
C399        H406   1.084       .  S
C399        C400   1.364       .  D
C400        C401   1.562       .  S
C400       C1023   1.514       .  S
C401        C405   1.580       .  S
C401        C403   1.602       .  S
C401        H407   1.106       .  S
C402        H408   1.058       .  S
C402        C403   1.397       .  D
C403        C410   1.635       .  S
C404        H409   1.086       .  S
C404        C405   1.356       .  D
C405        C639   1.513       .  S
C411        C412   1.410       .  A
C411        C416   1.419       .  A
C411        H418   1.084       .  S
C412        C413   1.420       .  A
C413        C420   1.507       .  S
C413        C414   1.419       .  A
C414        C415   1.416       .  A
C414        H419   1.084       .  S
C415        C416   1.429       .  A
C416        C417   1.503       .  S
C417        H421   1.111       .  S
C417        H422   1.109       .  S
C417        H423   1.090       .  S
C420        H424   1.109       .  S
C420        H425   1.110       .  S
C420        H426   1.111       .  S
C427        C428   1.405       .  A
C427        C432   1.410       .  A
C427        H434   1.084       .  S
C428        C429   1.413       .  A
C429        C436   1.507       .  S
C429        C430   1.411       .  A
C430        C431   1.408       .  A
C430        H435   1.084       .  S
C431        C432   1.416       .  A
C432        C433   1.508       .  S
C433        H437   1.111       .  S
C433        H438   1.110       .  S
C433        H439   1.110       .  S
C436        H440   1.110       .  S
C436        H441   1.110       .  S
C436        H442   1.111       .  S
C443        C444   1.411       .  A
C443        C448   1.407       .  A
C443        H450   1.085       .  S
C444        C445   1.412   1_655  A
C445        C452   1.507       .  S
C445        C446   1.406       .  A
C446        C447   1.408       .  A
C446        H451   1.085       .  S
C447        C448   1.409   1_455  A
C448        C449   1.506       .  S
C449        H453   1.111       .  S
C449        H454   1.110       .  S
C449        H455   1.110       .  S
C452        H456   1.110       .  S
C452        H457   1.110       .  S
C452        H458   1.111       .  S
C459        C460   1.413       .  A
C459        C464   1.407       .  A
C459        H466   1.085       .  S
C460        C461   1.401       .  A
C461        C468   1.507       .  S
C461        C462   1.401       .  A
C462        C463   1.417       .  A
C462        H467   1.084       .  S
C463        C464   1.407       .  A
C464        C465   1.505   1_455  S
C465        H469   1.111       .  S
C465        H470   1.110       .  S
C465        H471   1.110   1_655  S
C468        H472   1.110       .  S
C468        H473   1.110       .  S
C468        H474   1.111       .  S
C475        C476   1.415       .  A
C475        C480   1.403       .  A
C475        H482   1.084       .  S
C476        C477   1.405       .  A
C477        C484   1.505       .  S
C477        C478   1.405       .  A
C478        C479   1.417       .  A
C478        H483   1.085       .  S
C479        C480   1.407       .  A
C480        C481   1.507       .  S
C481        H485   1.111       .  S
C481        H486   1.110       .  S
C481        H487   1.110       .  S
C484        H488   1.110       .  S
C484        H489   1.107       .  S
C484        H490   1.111       .  S
C491        C492   1.407   1_565  A
C491        C496   1.405       .  A
C491        H498   1.085       .  S
C492        C493   1.413       .  A
C493        C500   1.506       .  S
C493        C494   1.406       .  A
C494        C495   1.406       .  A
C494        H499   1.085       .  S
C495        C496   1.410   1_545  A
C496        C497   1.507       .  S
C497        H501   1.111       .  S
C497        H502   1.110       .  S
C497        H503   1.110       .  S
C500        H504   1.109       .  S
C500        H505   1.109       .  S
C500        H506   1.110       .  S
C507        C508   1.410       .  A
C507        C512   1.408       .  A
C507        H514   1.084       .  S
C508        C509   1.409       .  A
C509        C516   1.508       .  S
C509        C510   1.402       .  A
C510        C511   1.407       .  A
C510        H515   1.084       .  S
C511        C512   1.408       .  A
C512        C513   1.506       .  S
C513        H517   1.111       .  S
C513        H518   1.111       .  S
C513        H519   1.110       .  S
C516        H520   1.110       .  S
C516        H521   1.110       .  S
C516        H522   1.111   1_545  S
C523        C524   1.404       .  A
C523        C528   1.414       .  A
C523        H530   1.078       .  S
C524        C525   1.421       .  A
C525        C532   1.506       .  S
C525        C526   1.416       .  A
C526        C527   1.409       .  A
C526        H531   1.084       .  S
C527        C528   1.422       .  A
C528        C529   1.508       .  S
C529        H533   1.111       .  S
C529        H534   1.110       .  S
C529        H535   1.109       .  S
C532        H536   1.110       .  S
C532        H537   1.109       .  S
C532        H538   1.106       .  S
C539        C540   1.402       .  A
C539        C544   1.405       .  A
C539        H546   1.082       .  S
C540        C541   1.413       .  A
C541        C548   1.504       .  S
C541        C542   1.405       .  A
C542        C543   1.402       .  A
C542        H547   1.085       .  S
C543        C544   1.413       .  A
C544        C545   1.507       .  S
C545        H549   1.111       .  S
C545        H550   1.109       .  S
C545        H551   1.110       .  S
C548        H552   1.107       .  S
C548        H553   1.110       .  S
C548        H554   1.111       .  S
C555        C556   1.401   1_545  A
C555        C560   1.403       .  A
C555        H562   1.085       .  S
C556        C557   1.414       .  A
C557        C564   1.507       .  S
C557        C558   1.405       .  A
C558        C559   1.400   1_565  A
C558        H563   1.084       .  S
C559        C560   1.416       .  A
C560        C561   1.508       .  S
C561        H565   1.111       .  S
C561        H566   1.109       .  S
C561        H567   1.108       .  S
C564        H568   1.110       .  S
C564        H569   1.110       .  S
C564        H570   1.111       .  S
C571        C572   1.397       .  A
C571        C576   1.399       .  A
C571        H578   1.084   1_545  S
C572        C573   1.430       .  A
C573        C580   1.509       .  S
C573        C574   1.407       .  A
C574        C575   1.394       .  A
C574        H579   1.084       .  S
C575        C576   1.421       .  A
C576        C577   1.509   1_545  S
C577        H581   1.111       .  S
C577        H582   1.111       .  S
C577        H583   1.109       .  S
C580        H584   1.106       .  S
C580        H585   1.109       .  S
C580        H586   1.111       .  S
C587        C588   1.400       .  A
C587        C592   1.409       .  A
C587        H594   1.084       .  S
C588        C589   1.422       .  A
C589        C596   1.508       .  S
C589        C590   1.406       .  A
C590        C591   1.398       .  A
C590        H595   1.084       .  S
C591        C592   1.423       .  A
C592        C593   1.509       .  S
C593        H597   1.111       .  S
C593        H598   1.109       .  S
C593        H599   1.108       .  S
C596        H600   1.110       .  S
C596        H601   1.107       .  S
C596        H602   1.111       .  S
C603        C604   1.397       .  A
C603        C608   1.402       .  A
C603        H610   1.085   1_554  S
C604        C605   1.418       .  A
C605        C612   1.507       .  S
C605        C606   1.408       .  A
C606        C607   1.402       .  A
C606        H611   1.084       .  S
C607        C608   1.417       .  A
C608        C609   1.502   1_554  S
C609        H613   1.111       .  S
C609        H614   1.109       .  S
C609        H615   1.106       .  S
C612        H616   1.110       .  S
C612        H617   1.110       .  S
C612        H618   1.111       .  S
C619        C620   1.398       .  A
C619        C624   1.407       .  A
C619        H626   1.084   1_554  S
C620        C621   1.426       .  A
C621        C628   1.511       .  S
C621        C622   1.403       .  A
C622        C623   1.394       .  A
C622        H627   1.085       .  S
C623        C624   1.422       .  A
C624        C625   1.509   1_554  S
C625        H629   1.111       .  S
C625        H630   1.110       .  S
C625        H631   1.109   1_556  S
C628        H632   1.109       .  S
C628        H633   1.109       .  S
C628        H634   1.111       .  S
C635        C636   1.398       .  A
C635        C640   1.409       .  A
C635        H642   1.085       .  S
C636        C637   1.417       .  A
C637        C644   1.504       .  S
C637        C638   1.422       .  A
C638        C639   1.409       .  A
C638        H643   1.083       .  S
C639        C640   1.427       .  A
C640        C641   1.504       .  S
C641        H645   1.110       .  S
C641        H646   1.109       .  S
C641        H647   1.100       .  S
C644        H648   1.110       .  S
C644        H649   1.110       .  S
C644        H650   1.111       .  S
C651        C652   1.401       .  A
C651        C656   1.404       .  A
C651        H658   1.078       .  S
C652        C653   1.415       .  A
C653        C660   1.508       .  S
C653        C654   1.405       .  A
C654        C655   1.402       .  A
C654        H659   1.085       .  S
C655        C656   1.414       .  A
C656        C657   1.508       .  S
C657        H661   1.111       .  S
C657        H662   1.110       .  S
C657        H663   1.110       .  S
C660        H664   1.109       .  S
C660        H665   1.110       .  S
C660        H666   1.111       .  S
C667        C668   1.401   1_655  A
C667        C672   1.408       .  A
C667        H674   1.084       .  S
C668        C669   1.415       .  A
C669        C676   1.503       .  S
C669        C670   1.406       .  A
C670        C671   1.401   1_455  A
C670        H675   1.084       .  S
C671        C672   1.420       .  A
C672        C673   1.508       .  S
C673        H677   1.111       .  S
C673        H678   1.109       .  S
C673        H679   1.110       .  S
C676        H680   1.109       .  S
C676        H681   1.110       .  S
C676        H682   1.111       .  S
C683        C684   1.411       .  A
C683        C688   1.403       .  A
C683        H690   1.084       .  S
C684        C685   1.408       .  A
C685        C692   1.506   1_455  S
C685        C686   1.407       .  A
C686        C687   1.410       .  A
C686        H691   1.085       .  S
C687        C688   1.406       .  A
C688        C689   1.507       .  S
C689        H693   1.111       .  S
C689        H694   1.110       .  S
C689        H695   1.110       .  S
C692        H696   1.110   1_655  S
C692        H697   1.108       .  S
C692        H698   1.111       .  S
C699        C700   1.407       .  A
C699        C704   1.411       .  A
C699        H706   1.084       .  S
C700        C701   1.409       .  A
C701        C708   1.505       .  S
C701        C702   1.406       .  A
C702        C703   1.411       .  A
C702        H707   1.085       .  S
C703        C704   1.413       .  A
C704        C705   1.506       .  S
C705        H709   1.111       .  S
C705        H710   1.110       .  S
C705        H711   1.110       .  S
C708        H712   1.110       .  S
C708        H713   1.110       .  S
C708        H714   1.111       .  S
C715        C716   1.409   1_556  A
C715        C720   1.406       .  A
C715        H722   1.085       .  S
C716        C717   1.407       .  A
C717        C724   1.506       .  S
C717        C718   1.404       .  A
C718        C719   1.408       .  A
C718        H723   1.082       .  S
C719        C720   1.407   1_554  A
C720        C721   1.500       .  S
C721        H725   1.111       .  S
C721        H726   1.110       .  S
C721        H727   1.109       .  S
C724        H728   1.110       .  S
C724        H729   1.110       .  S
C724        H730   1.111       .  S
C731        C732   1.411       .  A
C731        C736   1.407       .  A
C731        H738   1.085       .  S
C732        C733   1.406       .  A
C733        C740   1.506   1_554  S
C733        C734   1.403       .  A
C734        C735   1.410       .  A
C734        H739   1.085       .  S
C735        C736   1.408       .  A
C736        C737   1.505       .  S
C737        H741   1.111       .  S
C737        H742   1.110       .  S
C737        H743   1.110       .  S
C740        H744   1.107       .  S
C740        H745   1.110   1_556  S
C740        H746   1.111       .  S
C747        C748   1.399       .  A
C747        C752   1.412       .  A
C747        H754   1.085       .  S
C748        C749   1.421       .  A
C749        C756   1.504       .  S
C749        C750   1.425       .  A
C750        C751   1.409       .  A
C750        H755   1.084       .  S
C751        C752   1.431       .  A
C752        C753   1.509       .  S
C753        H757   1.110       .  S
C753        H758   1.110       .  S
C753        H759   1.103       .  S
C756        H760   1.110       .  S
C756        H761   1.111       .  S
C756        H762   1.111       .  S
C763        C764   1.400       .  A
C763        C768   1.406       .  A
C763        H770   1.084       .  S
C764        C765   1.420       .  A
C765        C772   1.509       .  S
C765        C766   1.408       .  A
C766        C767   1.401       .  A
C766        H771   1.085       .  S
C767        C768   1.416       .  A
C768        C769   1.499       .  S
C769        H773   1.111       .  S
C769        H774   1.110       .  S
C769        H775   1.108       .  S
C772        H776   1.110       .  S
C772        H777   1.108       .  S
C772        H778   1.111       .  S
C779        C780   1.401       .  A
C779        C784   1.407       .  A
C779        H786   1.082       .  S
C780        C781   1.417       .  A
C781        C788   1.508       .  S
C781        C782   1.410       .  A
C782        C783   1.404       .  A
C782        H787   1.084       .  S
C783        C784   1.419       .  A
C784        C785   1.507       .  S
C785        H789   1.110       .  S
C785        H790   1.110       .  S
C785        H791   1.110       .  S
C788        H792   1.111       .  S
C788        H793   1.110       .  S
C788        H794   1.111       .  S
C795        C796   1.401   1_565  A
C795        C800   1.403       .  A
C795        H802   1.079       .  S
C796        C797   1.413       .  A
C797        C804   1.505       .  S
C797        C798   1.408       .  A
C798        C799   1.404   1_545  A
C798        H803   1.084       .  S
C799        C800   1.414       .  A
C800        C801   1.508       .  S
C801        H805   1.111       .  S
C801        H806   1.110       .  S
C801        H807   1.109       .  S
C804        H808   1.110       .  S
C804        H809   1.110       .  S
C804        H810   1.111       .  S
C811        C812   1.414       .  A
C811        C816   1.405       .  A
C811        H818   1.085       .  S
C812        C813   1.403       .  A
C813        C820   1.506       .  S
C813        C814   1.403       .  A
C814        C815   1.415       .  A
C814        H819   1.084       .  S
C815        C816   1.407       .  A
C816        C817   1.506   1_545  S
C817        H821   1.111       .  S
C817        H822   1.108       .  S
C817        H823   1.110   1_565  S
C820        H824   1.110       .  S
C820        H825   1.110       .  S
C820        H826   1.111       .  S
C827        C828   1.401       .  A
C827        C832   1.403       .  A
C827        H834   1.083   1_545  S
C828        C829   1.412       .  A
C829        C836   1.506       .  S
C829        C830   1.408       .  A
C830        C831   1.406       .  A
C830        H835   1.084       .  S
C831        C832   1.415       .  A
C832        C833   1.507   1_545  S
C833        H837   1.110       .  S
C833        H838   1.109       .  S
C833        H839   1.110       .  S
C836        H840   1.110       .  S
C836        H841   1.110       .  S
C836        H842   1.111       .  S
C843        C844   1.399   1_565  A
C843        C848   1.402       .  A
C843        H850   1.084       .  S
C844        C845   1.429       .  A
C845        C852   1.510       .  S
C845        C846   1.404       .  A
C846        C847   1.396   1_545  A
C846        H851   1.084       .  S
C847        C848   1.420       .  A
C848        C849   1.507       .  S
C849        H853   1.111       .  S
C849        H854   1.111       .  S
C849        H855   1.109       .  S
C852        H856   1.107       .  S
C852        H857   1.109       .  S
C852        H858   1.111       .  S
C859        C860   1.416       .  A
C859        C864   1.421       .  A
C859        H866   1.084       .  S
C860        C861   1.421       .  A
C861        C868   1.506       .  S
C861        C862   1.411       .  A
C862        C863   1.413       .  A
C862        H867   1.085       .  S
C863        C864   1.423       .  A
C864        C865   1.503       .  S
C865        H869   1.111       .  S
C865        H870   1.109       .  S
C865        H871   1.098       .  S
C868        H872   1.108       .  S
C868        H873   1.110       .  S
C868        H874   1.107       .  S
C875        C876   1.406       .  A
C875        C880   1.406       .  A
C875        H882   1.085       .  S
C876        C877   1.412       .  A
C877        C884   1.507       .  S
C877        C878   1.405       .  A
C878        C879   1.403       .  A
C878        H883   1.083       .  S
C879        C880   1.411       .  A
C880        C881   1.505       .  S
C881        H885   1.111       .  S
C881        H886   1.108       .  S
C881        H887   1.111       .  S
C884        H888   1.110       .  S
C884        H889   1.110       .  S
C884        H890   1.111       .  S
C891        C892   1.414       .  A
C891        C896   1.407       .  A
C891        H898   1.084       .  S
C892        C893   1.411       .  A
C893        C900   1.506       .  S
C893        C894   1.409       .  A
C894        C895   1.411       .  A
C894        H899   1.084       .  S
C895        C896   1.407       .  A
C896        C897   1.507       .  S
C897        H901   1.111       .  S
C897        H902   1.110       .  S
C897        H903   1.110       .  S
C900        H904   1.109       .  S
C900        H905   1.110       .  S
C900        H906   1.111       .  S
C907        C908   1.412       .  A
C907        C912   1.418       .  A
C907        H914   1.083       .  S
C908        C909   1.427       .  A
C909        C916   1.508       .  S
C909        C910   1.420       .  A
C910        C911   1.415       .  A
C910        H915   1.082       .  S
C911        C912   1.428       .  A
C912        C913   1.507       .  S
C913        H917   1.110       .  S
C913        H918   1.107       .  S
C913        H919   1.110       .  S
C916        H920   1.110       .  S
C916        H921   1.109       .  S
C916        H922   1.111       .  S
C923        C924   1.397       .  A
C923        C928   1.407       .  A
C923        H930   1.084       .  S
C924        C925   1.421       .  A
C925        C932   1.509       .  S
C925        C926   1.409       .  A
C926        C927   1.401       .  A
C926        H931   1.084       .  S
C927        C928   1.426       .  A
C928        C929   1.507       .  S
C929        H933   1.111       .  S
C929        H934   1.104       .  S
C929        H935   1.108       .  S
C932        H936   1.108       .  S
C932        H937   1.110       .  S
C932        H938   1.111       .  S
C939        C940   1.405       .  A
C939        C944   1.409       .  A
C939        H946   1.084       .  S
C940        C941   1.414       .  A
C941        C948   1.504       .  S
C941        C942   1.408       .  A
C942        C943   1.405       .  A
C942        H947   1.084       .  S
C943        C944   1.415       .  A
C944        C945   1.507       .  S
C945        H949   1.111       .  S
C945        H950   1.111       .  S
C945        H951   1.110       .  S
C948        H952   1.109       .  S
C948        H953   1.110       .  S
C948        H954   1.111       .  S
C955        C956   1.400       .  A
C955        C960   1.408       .  A
C955        H962   1.084       .  S
C956        C957   1.428       .  A
C957        C964   1.509       .  S
C957        C958   1.400       .  A
C958        C959   1.395       .  A
C958        H963   1.085       .  S
C959        C960   1.419       .  A
C960        C961   1.507       .  S
C961        H965   1.111       .  S
C961        H966   1.108       .  S
C961        H967   1.110       .  S
C964        H968   1.102   1_455  S
C964        H969   1.109       .  S
C964        H970   1.111       .  S
C971        C972   1.413       .  A
C971        C976   1.407       .  A
C971        H978   1.085       .  S
C972        C973   1.410   1_655  A
C973        C980   1.508       .  S
C973        C974   1.401       .  A
C974        C975   1.407       .  A
C974        H979   1.081       .  S
C975        C976   1.407   1_455  A
C976        C977   1.504       .  S
C977        H981   1.111       .  S
C977        H982   1.110       .  S
C977        H983   1.110       .  S
C980        H984   1.110       .  S
C980        H985   1.110       .  S
C980        H986   1.111       .  S
C987        C988   1.415       .  A
C987        C992   1.403       .  A
C987        H994   1.084       .  S
C988        C989   1.409       .  A
C989        C996   1.506       .  S
C989        C990   1.409       .  A
C990        C991   1.417       .  A
C990        H995   1.085       .  S
C991        C992   1.407       .  A
C992        C993   1.507       .  S
C993        H997   1.111       .  S
C993        H998   1.109       .  S
C993        H999   1.111       .  S
C996       H1000   1.110       .  S
C996       H1001   1.109       .  S
C996       H1002   1.111       .  S
C1003      C1004   1.403       .  A
C1003      C1008   1.408       .  A
C1003      H1010   1.085       .  S
C1004      C1005   1.414   1_455  A
C1005      C1012   1.506       .  S
C1005      C1006   1.404       .  A
C1006      C1007   1.403   1_655  A
C1006      H1011   1.085       .  S
C1007      C1008   1.416       .  A
C1008      C1009   1.507       .  S
C1009      H1013   1.111       .  S
C1009      H1014   1.111       .  S
C1009      H1015   1.110       .  S
C1012      H1016   1.109       .  S
C1012      H1017   1.110       .  S
C1012      H1018   1.111       .  S
C1019      C1020   1.410       .  A
C1019      C1024   1.409       .  A
C1019      H1026   1.083       .  S
C1020      C1021   1.431       .  A
C1021      C1028   1.507       .  S
C1021      C1022   1.419       .  A
C1022      C1023   1.404       .  A
C1022      H1027   1.084       .  S
C1023      C1024   1.420       .  A
C1024      C1025   1.509       .  S
C1025      H1029   1.109       .  S
C1025      H1030   1.110       .  S
C1025      H1031   1.110       .  S
C1028      H1032   1.110       .  S
C1028      H1033   1.110       .  S
C1028      H1034   1.111       .  S
C1035      C1036   1.412       .  A
C1035      C1040   1.401       .  A
C1035      H1042   1.085       .  S
C1036      C1037   1.407       .  A
C1037      C1044   1.506       .  S
C1037      C1038   1.405       .  A
C1038      C1039   1.412       .  A
C1038      H1043   1.085       .  S
C1039      C1040   1.404       .  A
C1040      C1041   1.507       .  S
C1041      H1045   1.111       .  S
C1041      H1046   1.110       .  S
C1041      H1047   1.109       .  S
C1044      H1048   1.110       .  S
C1044      H1049   1.109       .  S
C1044      H1050   1.110       .  S
C1051      C1052   1.407       .  A
C1051      C1056   1.408       .  A
C1051      H1058   1.084       .  S
C1052      C1053   1.416       .  A
C1053      C1060   1.507       .  S
C1053      C1054   1.408       .  A
C1054      C1055   1.403       .  A
C1054      H1059   1.084       .  S
C1055      C1056   1.413       .  A
C1056      C1057   1.508       .  S
C1057      H1061   1.111       .  S
C1057      H1062   1.110       .  S
C1057      H1063   1.110       .  S
C1060      H1064   1.110       .  S
C1060      H1065   1.110       .  S
C1060      H1066   1.111       .  S
C1067      C1068   1.418       .  A
C1067      C1072   1.423       .  A
C1067      H1074   1.083       .  S
C1068      C1069   1.423       .  A
C1069      C1076   1.507       .  S
C1069      C1070   1.412       .  A
C1070      C1071   1.413       .  A
C1070      H1075   1.084       .  S
C1071      C1072   1.419       .  A
C1072      C1073   1.506       .  S
C1073      H1077   1.109       .  S
C1073      H1078   1.102       .  S
C1073      H1079   1.110       .  S
C1076      H1080   1.110       .  S
C1076      H1081   1.108       .  S
C1076      H1082   1.110       .  S
C1083      C1084   1.412       .  A
C1083      C1088   1.407       .  A
C1083      H1090   1.085       .  S
C1084      C1085   1.411       .  A
C1085      C1092   1.505       .  S
C1085      C1086   1.410       .  A
C1086      C1087   1.411       .  A
C1086      H1091   1.083       .  S
C1087      C1088   1.407       .  A
C1088      C1089   1.500       .  S
C1089      H1093   1.111       .  S
C1089      H1094   1.110       .  S
C1089      H1095   1.109       .  S
C1092      H1096   1.110       .  S
C1092      H1097   1.109       .  S
C1092      H1098   1.111       .  S
C1099      C1100   1.399       .  A
C1099      C1104   1.404       .  A
C1099      H1106   1.084       .  S
C1100      C1101   1.419       .  A
C1101      C1108   1.508       .  S
C1101      C1102   1.404       .  A
C1102      C1103   1.400       .  A
C1102      H1107   1.085       .  S
C1103      C1104   1.417       .  A
C1104      C1105   1.509       .  S
C1105      H1109   1.111       .  S
C1105      H1110   1.110       .  S
C1105      H1111   1.110       .  S
C1108      H1112   1.110       .  S
C1108      H1113   1.107       .  S
C1108      H1114   1.110       .  S
C1115      C1116   1.402   1_556  A
C1115      C1120   1.404       .  A
C1115      H1122   1.084       .  S
C1116      C1117   1.413       .  A
C1117      C1124   1.507       .  S
C1117      C1118   1.405       .  A
C1118      C1119   1.404       .  A
C1118      H1123   1.085       .  S
C1119      C1120   1.412   1_554  A
C1120      C1121   1.507       .  S
C1121      H1125   1.111       .  S
C1121      H1126   1.110       .  S
C1121      H1127   1.110       .  S
C1124      H1128   1.110       .  S
C1124      H1129   1.110       .  S
C1124      H1130   1.111       .  S
C1131      C1132   1.399       .  A
C1131      C1136   1.405       .  A
C1131      H1138   1.084       .  S
C1132      C1133   1.422       .  A
C1133      C1140   1.510   1_554  S
C1133      C1134   1.402       .  A
C1134      C1135   1.398       .  A
C1134      H1139   1.085       .  S
C1135      C1136   1.419       .  A
C1136      C1137   1.508       .  S
C1137      H1141   1.111       .  S
C1137      H1142   1.110       .  S
C1137      H1143   1.109       .  S
C1140      H1144   1.108   1_556  S
C1140      H1145   1.108       .  S
C1140      H1146   1.111       .  S
C1147      C1148   1.415       .  A
C1147      C1152   1.408       .  A
C1147      H1154   1.085       .  S
C1148      C1149   1.409   1_556  A
C1149      C1156   1.504       .  S
C1149      C1150   1.401       .  A
C1150      C1151   1.410       .  A
C1150      H1155   1.085       .  S
C1151      C1152   1.410   1_554  A
C1152      C1153   1.506       .  S
C1153      H1157   1.110       .  S
C1153      H1158   1.106       .  S
C1153      H1159   1.110       .  S
C1156      H1160   1.110       .  S
C1156      H1161   1.108       .  S
C1156      H1162   1.111       .  S
C1163      C1164   1.402       .  A
C1163      C1168   1.405       .  A
C1163      H1170   1.085   1_554  S
C1164      C1165   1.415       .  A
C1165      C1172   1.502       .  S
C1165      C1166   1.406       .  A
C1166      C1167   1.403       .  A
C1166      H1171   1.085       .  S
C1167      C1168   1.415       .  A
C1168      C1169   1.505   1_554  S
C1169      H1173   1.110       .  S
C1169      H1174   1.110       .  S
C1169      H1175   1.111       .  S
C1172      H1176   1.110       .  S
C1172      H1177   1.107       .  S
C1172      H1178   1.111       .  S
C1179      C1180   1.410       .  A
C1179      C1184   1.404       .  A
C1179      H1186   1.083       .  S
C1180      C1181   1.423       .  A
C1181      C1188   1.508       .  S
C1181      C1182   1.412       .  A
C1182      C1183   1.409       .  A
C1182      H1187   1.084       .  S
C1183      C1184   1.419       .  A
C1184      C1185   1.510       .  S
C1185      H1189   1.111       .  S
C1185      H1190   1.109       .  S
C1185      H1191   1.110       .  S
C1188      H1192   1.110       .  S
C1188      H1193   1.108       .  S
C1188      H1194   1.111       .  S
C1195      C1196   1.409       .  A
C1195      C1200   1.404       .  A
C1195      H1202   1.085       .  S
C1196      C1197   1.404       .  A
C1197      C1204   1.508       .  S
C1197      C1198   1.398       .  A
C1198      C1199   1.408       .  A
C1198      H1203   1.084       .  S
C1199      C1200   1.407       .  A
C1200      C1201   1.505       .  S
C1201      H1205   1.111       .  S
C1201      H1206   1.110       .  S
C1201      H1207   1.109       .  S
C1204      H1208   1.110       .  S
C1204      H1209   1.110       .  S
C1204      H1210   1.111       .  S
C1211      C1212   1.415       .  A
C1211      C1216   1.407       .  A
C1211      H1218   1.085       .  S
C1212      C1213   1.407       .  A
C1213      C1220   1.508       .  S
C1213      C1214   1.399       .  A
C1214      C1215   1.412       .  A
C1214      H1219   1.085       .  S
C1215      C1216   1.407       .  A
C1216      C1217   1.506       .  S
C1217      H1221   1.111       .  S
C1217      H1222   1.110       .  S
C1217      H1223   1.108       .  S
C1220      H1224   1.110       .  S
C1220      H1225   1.110       .  S
C1220      H1226   1.111       .  S
C1227      C1228   1.394       .  A
C1227      C1232   1.411       .  A
C1227      H1234   1.085       .  S
C1228      C1229   1.413       .  A
C1229      C1236   1.506       .  S
C1229      C1230   1.416       .  A
C1230      C1231   1.417       .  A
C1230      H1235   1.076       .  S
C1231      C1232   1.440       .  A
C1232      C1233   1.514       .  S
C1233      H1237   1.104       .  S
C1233      H1238   1.104       .  S
C1233      H1239   1.111       .  S
C1236      H1240   1.110       .  S
C1236      H1241   1.109       .  S
C1236      H1242   1.110       .  S
C1243      C1244   1.402       .  A
C1243      C1248   1.407       .  A
C1243      H1250   1.084       .  S
C1244      C1245   1.418       .  A
C1245      C1252   1.506       .  S
C1245      C1246   1.400       .  A
C1246      C1247   1.399       .  A
C1246      H1251   1.085       .  S
C1247      C1248   1.416       .  A
C1248      C1249   1.506       .  S
C1249      H1253   1.111       .  S
C1249      H1254   1.111       .  S
C1249      H1255   1.109       .  S
C1252      H1256   1.108       .  S
C1252      H1257   1.105       .  S
C1252      H1258   1.111       .  S
C1259      C1260   1.409       .  A
C1259      C1264   1.404       .  A
C1259      H1266   1.085       .  S
C1260      C1261   1.414       .  A
C1261      C1268   1.506       .  S
C1261      C1262   1.408       .  A
C1262      C1263   1.407       .  A
C1262      H1267   1.085       .  S
C1263      C1264   1.408       .  A
C1264      C1265   1.505       .  S
C1265      H1269   1.111       .  S
C1265      H1270   1.106       .  S
C1265      H1271   1.110       .  S
C1268      H1272   1.110       .  S
C1268      H1273   1.111       .  S
C1268      H1274   1.111       .  S
C1275      C1276   1.401       .  A
C1275      C1280   1.409       .  A
C1275      H1282   1.085       .  S
C1276      C1277   1.417       .  A
C1277      C1284   1.505       .  S
C1277      C1278   1.416       .  A
C1278      C1279   1.408       .  A
C1278      H1283   1.082       .  S
C1279      C1280   1.425       .  A
C1280      C1281   1.507       .  S
C1281      H1285   1.110       .  S
C1281      H1286   1.110       .  S
C1281      H1287   1.104       .  S
C1284      H1288   1.110       .  S
C1284      H1289   1.110       .  S
C1284      H1290   1.110       .  S
C1291      C1292   1.404       .  A
C1291      C1296   1.408       .  A
C1291      H1298   1.084       .  S
C1292      C1293   1.419       .  A
C1293      C1300   1.508       .  S
C1293      C1294   1.408       .  A
C1294      C1295   1.402       .  A
C1294      H1299   1.083       .  S
C1295      C1296   1.416       .  A
C1296      C1297   1.504       .  S
C1297      H1301   1.111       .  S
C1297      H1302   1.109       .  S
C1297      H1303   1.110       .  S
C1300      H1304   1.109       .  S
C1300      H1305   1.110       .  S
C1300      H1306   1.111       .  S
C1307      C1308   1.407       .  A
C1307      C1312   1.404       .  A
C1307      H1314   1.085       .  S
C1308      C1309   1.410       .  A
C1309      C1316   1.507       .  S
C1309      C1310   1.404       .  A
C1310      C1311   1.407       .  A
C1310      H1315   1.085       .  S
C1311      C1312   1.407       .  A
C1312      C1313   1.506       .  S
C1313      H1317   1.111       .  S
C1313      H1318   1.107       .  S
C1313      H1319   1.110       .  S
C1316      H1320   1.110       .  S
C1316      H1321   1.110       .  S
C1316      H1322   1.111       .  S
C1323      C1324   1.393       .  A
C1323      C1328   1.412       .  A
C1323      H1330   1.085       .  S
C1324      C1325   1.415       .  A
C1325      C1332   1.504       .  S
C1325      C1326   1.423       .  A
C1326      C1327   1.416       .  A
C1326      H1331   1.080       .  S
C1327      C1328   1.443       .  A
C1328      C1329   1.516       .  S
C1329      H1333   1.105       .  S
C1329      H1334   1.111       .  S
C1329      H1335   1.105       .  S
C1332      H1336   1.110       .  S
C1332      H1337   1.111       .  S
C1332      H1338   1.109       .  S
C1339      C1340   1.412       .  A
C1339      C1344   1.409       .  A
C1339      H1346   1.084       .  S
C1340      C1341   1.413       .  A
C1341      C1348   1.507       .  S
C1341      C1342   1.406       .  A
C1342      C1343   1.404       .  A
C1342      H1347   1.081       .  S
C1343      C1344   1.409       .  A
C1344      C1345   1.506       .  S
C1345      H1349   1.111       .  S
C1345      H1350   1.111       .  S
C1345      H1351   1.110       .  S
C1348      H1352   1.110       .  S
C1348      H1353   1.110       .  S
C1348      H1354   1.111       .  S
C1355      C1356   1.405       .  A
C1355      C1360   1.407       .  A
C1355      H1362   1.085       .  S
C1356      C1357   1.413       .  A
C1357      C1364   1.507       .  S
C1357      C1358   1.405       .  A
C1358      C1359   1.404       .  A
C1358      H1363   1.083       .  S
C1359      C1360   1.412       .  A
C1360      C1361   1.505       .  S
C1361      H1365   1.111       .  S
C1361      H1366   1.107       .  S
C1361      H1367   1.110       .  S
C1364      H1368   1.110       .  S
C1364      H1369   1.110       .  S
C1364      H1370   1.111       .  S
C1371      C1372   1.412       .  A
C1371      C1376   1.411       .  A
C1371      H1378   1.084       .  S
C1372      C1373   1.426       .  A
C1373      C1380   1.510       .  S
C1373      C1374   1.423       .  A
C1374      C1375   1.416       .  A
C1374      H1379   1.083       .  S
C1375      C1376   1.423       .  A
C1376      C1377   1.509       .  S
C1377      H1381   1.110       .  S
C1377      H1382   1.110   1_455  S
C1377      H1383   1.109       .  S
C1380      H1384   1.107       .  S
C1380      H1385   1.102       .  S
C1380      H1386   1.110       .  S
C1387      C1388   1.397       .  A
C1387      C1392   1.411   1_554  A
C1387      H1394   1.084   1_554  S
C1388      C1389   1.416       .  A
C1389      C1396   1.505       .  S
C1389      C1390   1.418       .  A
C1390      C1391   1.408       .  A
C1390      H1395   1.084       .  S
C1391      C1392   1.432   1_554  A
C1392      C1393   1.512       .  S
C1393      H1397   1.111       .  S
C1393      H1398   1.107       .  S
C1393      H1399   1.098       .  S
C1396      H1400   1.110       .  S
C1396      H1401   1.110       .  S
C1396      H1402   1.107       .  S
C1403      C1404   1.412       .  A
C1403      C1408   1.413       .  A
C1403      H1410   1.081       .  S
C1404      C1405   1.423       .  A
C1405      C1412   1.509       .  S
C1405      C1406   1.411       .  A
C1406      C1407   1.412       .  A
C1406      H1411   1.083       .  S
C1407      C1408   1.424       .  A
C1408      C1409   1.508       .  S
C1409      H1413   1.111       .  S
C1409      H1414   1.110       .  S
C1409      H1415   1.109       .  S
C1412      H1416   1.107       .  S
C1412      H1417   1.110       .  S
C1412      H1418   1.110       .  S
C1419      C1420   1.421       .  A
C1419      C1424   1.404       .  A
C1419      H1426   1.081       .  S
C1420      C1421   1.429   1_554  A
C1421      C1428   1.495       .  S
C1421      C1422   1.425       .  A
C1422      C1423   1.407   1_556  A
C1422      H1427   1.084       .  S
C1423      C1424   1.404       .  A
C1424      C1425   1.506       .  S
C1425      H1429   1.111       .  S
C1425      H1430   1.110       .  S
C1425      H1431   1.107       .  S
C1428      H1432   1.099       .  S
C1428      H1433   1.098       .  S
C1428      H1434   1.111       .  S
C1435      C1436   1.410       .  A
C1435      C1440   1.416       .  A
C1435      H1442   1.083       .  S
C1436      C1437   1.422       .  A
C1437      C1444   1.508       .  S
C1437      C1438   1.412       .  A
C1438      C1439   1.412       .  A
C1438      H1443   1.084       .  S
C1439      C1440   1.423       .  A
C1440      C1441   1.503       .  S
C1441      H1445   1.111       .  S
C1441      H1446   1.109   1_655  S
C1441      H1447   1.098   1_545  S
C1444      H1448   1.110       .  S
C1444      H1449   1.109       .  S
C1444      H1450   1.111       .  S
C1451      C1452   1.398       .  A
C1451      C1456   1.405   1_455  A
C1451      H1458   1.085   1_455  S
C1452      C1453   1.418       .  A
C1453      C1460   1.502       .  S
C1453      C1454   1.421       .  A
C1454      C1455   1.407       .  A
C1454      H1459   1.082       .  S
C1455      C1456   1.426   1_455  A
C1456      C1457   1.507       .  S
C1457      H1461   1.111       .  S
C1457      H1462   1.110       .  S
C1457      H1463   1.103       .  S
C1460      H1464   1.110       .  S
C1460      H1465   1.110       .  S
C1460      H1466   1.108       .  S
C1467      C1468   1.408       .  A
C1467      C1472   1.408       .  A
C1467      H1474   1.084       .  S
C1468      C1469   1.423       .  A
C1469      C1476   1.505       .  S
C1469      C1470   1.418       .  A
C1470      C1471   1.413       .  A
C1470      H1475   1.083       .  S
C1471      C1472   1.425       .  A
C1472      C1473   1.508   1_545  S
C1473      H1477   1.108       .  S
C1473      H1478   1.109   1_565  S
C1473      H1479   1.110       .  S
C1476      H1480   1.099       .  S
C1476      H1481   1.108   1_556  S
C1476      H1482   1.110       .  S
C1483      C1484   1.400       .  A
C1483      C1488   1.406   1_554  A
C1483      H1490   1.085   1_554  S
C1484      C1485   1.421       .  A
C1485      C1492   1.503       .  S
C1485      C1486   1.420       .  A
C1486      C1487   1.407       .  A
C1486      H1491   1.084       .  S
C1487      C1488   1.428   1_554  A
C1488      C1489   1.506       .  S
C1489      H1493   1.110       .  S
C1489      H1494   1.110       .  S
C1489      H1495   1.098       .  S
C1492      H1496   1.110       .  S
C1492      H1497   1.109       .  S
C1492      H1498   1.107       .  S
C1499      C1500   1.416       .  A
C1499      C1504   1.418       .  A
C1499      H1506   1.078       .  S
C1500      C1501   1.439   1_455  A
C1501      C1508   1.517       .  S
C1501      C1502   1.407   1_655  A
C1502      C1503   1.394       .  A
C1502      H1507   1.085   1_455  S
C1503      C1504   1.415       .  A
C1504      C1505   1.506       .  S
C1505      H1509   1.111       .  S
C1505      H1510   1.110       .  S
C1505      H1511   1.110       .  S
C1508      H1512   1.104       .  S
C1508      H1513   1.104       .  S
C1508      H1514   1.111       .  S
C1515      C1516   1.411       .  A
C1515      C1520   1.409       .  A
C1515      H1522   1.085       .  S
C1516      C1517   1.419       .  A
C1517      C1524   1.504       .  S
C1517      C1518   1.418       .  A
C1518      C1519   1.412       .  A
C1518      H1523   1.083       .  S
C1519      C1520   1.421       .  A
C1520      C1521   1.509       .  S
C1521      H1525   1.111       .  S
C1521      H1526   1.109       .  S
C1521      H1527   1.110   1_554  S
C1524      H1528   1.110       .  S
C1524      H1529   1.101       .  S
C1524      H1530   1.110       .  S
C1531      C1532   1.412       .  A
C1531      C1536   1.413       .  A
C1531      H1538   1.081       .  S
C1532      C1533   1.424       .  A
C1533      C1540   1.510       .  S
C1533      C1534   1.411       .  A
C1534      C1535   1.412       .  A
C1534      H1539   1.083       .  S
C1535      C1536   1.424       .  A
C1536      C1537   1.508       .  S
C1537      H1541   1.111       .  S
C1537      H1542   1.109       .  S
C1537      H1543   1.110   1_545  S
C1540      H1544   1.110       .  S
C1540      H1545   1.108       .  S
C1540      H1546   1.109   1_545  S
C1547      C1548   1.399       .  A
C1547      C1552   1.411       .  A
C1547      H1554   1.085       .  S
C1548      C1549   1.419   1_455  A
C1549      C1556   1.506       .  S
C1549      C1550   1.422   1_655  A
C1550      C1551   1.410       .  A
C1550      H1555   1.084   1_455  S
C1551      C1552   1.430       .  A
C1552      C1553   1.506       .  S
C1553      H1557   1.110       .  S
C1553      H1558   1.110       .  S
C1553      H1559   1.096       .  S
C1556      H1560   1.110       .  S
C1556      H1561   1.110       .  S
C1556      H1562   1.111       .  S
