geometry optimzed in LAMMPS
_audit_creation_date              2020-12-01 
_audit_creation_method            'lammps2cif' 
_symmetry_space_group_name_H-M    'P1' 
_symmetry_Int_Tables_number       1 
_symmetry_cell_setting            triclinic 
loop_ 
_symmetry_equiv_pos_as_xyz 
  x,y,z 
_cell_length_a                    46.37861176 
_cell_length_b                    45.615316226472025 
_cell_length_c                    38.49969184692617 
_cell_angle_alpha                 90.42530079693853 
_cell_angle_beta                  90.01187716795621 
_cell_angle_gamma                 90.10214352095832 
loop_ 
_atom_site_label 
_atom_site_type_symbol 
_atom_site_fract_x 
_atom_site_fract_y 
_atom_site_fract_z 
_atom_site_charge 
O1          O  0.47338765  0.21836007  0.53195913    -0.71800
O2          O  0.47957586  0.27593179  0.46144179    -0.72000
O3          O  0.47418133  0.21752353  0.46199692    -0.71900
O4          O  0.47899845  0.27741191  0.53116222    -0.71900
O5          O  0.02554132  0.27290850  0.53176821    -0.71900
O6          O  0.02078435  0.21279864  0.46328577    -0.71900
O7          O  0.02612268  0.27139363  0.46210262    -0.71800
O8          O  0.02000221  0.21401270  0.53278146    -0.72000
V9          V  0.47742738  0.24719638  0.49678069     1.35200
V10         V  0.02218994  0.24288744  0.49753884     1.35200
C11         C  0.99562411  0.20588582  0.54392492     0.77400
C12         C  0.50391344  0.28333293  0.44956069     0.77500
C13         C  0.49672959  0.20513043  0.45069777     0.77300
C14         C  0.00316408  0.28577033  0.54277527     0.77300
C15         C  0.49994768  0.49351040  0.24676130    -0.02500
C16         C  0.50286056  0.49551449  0.75558881    -0.02500
O17         O  0.27719274  0.03685591  0.96981986    -0.71800
O18         O  0.21803147  0.03408334  0.03779336    -0.72000
O19         O  0.27601296  0.03458435  0.03952120    -0.71900
O20         O  0.21908454  0.03608458  0.96819542    -0.71900
O21         O  0.22517292  0.48811827  0.96635274    -0.71900
O22         O  0.27911738  0.48684274  0.04032800    -0.71900
O23         O  0.22162883  0.48653322  0.03589675    -0.71800
O24         O  0.28310689  0.48863403  0.97056120    -0.72000
V25         V  0.24760299  0.03448740  0.00372773     1.35200
V26         V  0.25229813  0.48846258  0.00323982     1.35200
C27         C  0.28808709  0.01361873  0.95749407     0.77400
C28         C  0.20779236  0.00988955  0.04788499     0.77500
C29         C  0.28516424  0.01041397  0.05109688     0.75300
C30         C  0.20972413  0.01249446  0.95477066     0.77300
C31         C  0.02970404  0.49324481  0.77948561    -0.03200
C32         C  0.04677477  0.46772123  0.78204319    -0.05800
C33         C  0.07077645  0.46693447  0.80401950    -0.20900
C34         C  0.07836597  0.49133109  0.82443343     0.24800
C35         C  0.06055695  0.51619263  0.82371455    -0.18500
C36         C  0.03644958  0.51693793  0.80195342    -0.08500
C37         C  0.10410953  0.48941171  0.84737027    -0.18700
C38         C  0.11936897  0.51302020  0.85814689    -0.23500
C39         C  0.14496240  0.51181180  0.88165790     0.26900
C40         C  0.15661003  0.53835474  0.89413462    -0.20300
C41         C  0.17976068  0.53853634  0.91745133    -0.09900
C42         C  0.18640285  0.01267174  0.92849153    -0.10500
C43         C  0.18094720  0.48556510  0.91554491    -0.03400
C44         C  0.15781647  0.48535391  0.89225044    -0.18500
H45         H  0.04157294  0.44795723  0.76775142     0.10600
H46         H  0.08355694  0.44709597  0.80501325     0.10600
H47         H  0.06477354  0.53491832  0.84035822     0.10300
H48         H  0.01830470  0.03704849  0.80165621     0.11400
H49         H  0.11072730  0.46757179  0.85465426     0.11500
H50         H  0.11278661  0.53458533  0.84948675     0.13400
H51         H  0.14742016  0.55909685  0.88629980     0.09900
H52         H  0.17872360  0.05943079  0.93189749     0.12000
H53         H  0.18995124  0.46481508  0.92363034     0.08600
H54         H  0.15027416  0.46430709  0.88303060     0.11400
C55         C  0.47717147  0.49727289  0.78143888    -0.03200
C56         C  0.47146576  0.47311818  0.80313231    -0.05800
C57         C  0.44861837  0.47350322  0.82674885    -0.20900
C58         C  0.43109574  0.49835122  0.83046001     0.24800
C59         C  0.43768072  0.52326680  0.81058029    -0.18500
C60         C  0.46048183  0.52281933  0.78672661    -0.08500
C61         C  0.40687159  0.49720876  0.85596892    -0.18700
C62         C  0.38610286  0.51773520  0.85927061    -0.23500
C63         C  0.36224559  0.51571786  0.88505800     0.26900
C64         C  0.34890521  0.54162281  0.89658805    -0.20300
C65         C  0.32647389  0.54070392  0.92086026    -0.09900
C66         C  0.31189091  0.01502053  0.93188237    -0.10500
C67         C  0.32954301  0.48778015  0.92182158    -0.03400
C68         C  0.35204700  0.48870366  0.89764000    -0.18500
H69         H  0.48451911  0.45350661  0.80117961     0.10600
H70         H  0.44459395  0.45415262  0.84216747     0.10600
H71         H  0.42578255  0.54345237  0.81355119     0.10300
H72         H  0.45880315  0.04376198  0.76924806     0.11400
H73         H  0.40629661  0.47831701  0.87291172     0.11500
H74         H  0.38663403  0.53720125  0.84335905     0.13400
H75         H  0.35608115  0.56269437  0.88705300     0.09900
H76         H  0.31491968  0.06247189  0.93269948     0.12000
H77         H  0.32223043  0.46666600  0.93104251     0.08600
H78         H  0.36097909  0.46816995  0.88849400     0.11400
C79         C  0.18485686  0.00901439  0.07462343    -0.03200
C80         C  0.17325060  0.03514921  0.08811554    -0.05800
C81         C  0.15694663  0.53516806  0.11559002    -0.20900
C82         C  0.14464923  0.50856750  0.12617442     0.24800
C83         C  0.15514535  0.48221284  0.11169683    -0.18500
C84         C  0.17686351  0.48266924  0.08651244    -0.08500
C85         C  0.12120526  0.50938221  0.15250129    -0.18700
C86         C  0.10199417  0.48752393  0.15675344    -0.23500
C87         C  0.07728246  0.48916225  0.18124418     0.26900
C88         C  0.05364967  0.47062331  0.17548939    -0.20300
C89         C  0.02952107  0.47199940  0.19701028    -0.09900
C90         C  0.02787780  0.49249077  0.22462885    -0.10500
C91         C  0.05261341  0.50962924  0.23174816    -0.03400
C92         C  0.07686653  0.50813313  0.21021247    -0.18500
H93         H  0.18067196  0.05623179  0.07890867     0.10600
H94         H  0.14950882  0.55575289  0.12653799     0.10600
H95         H  0.14703912  0.46115507  0.11995331     0.10300
H96         H  0.18444877  0.46207276  0.07577391     0.11400
H97         H  0.11864838  0.52961004  0.16716476     0.11500
H98         H  0.10299340  0.46838223  0.13992596     0.13400
H99         H  0.05363740  0.45526103  0.15389141     0.09900
H100        H  0.01151875  0.45753315  0.19150485     0.12000
H101        H  0.04978391  0.02412633  0.25370210     0.08600
H102        H  0.09534661  0.52155687  0.21677145     0.11400
C103        C  0.47321253  0.50019093  0.22389085    -0.03200
C104        C  0.47372738  0.00820686  0.18846597    -0.05800
C105        C  0.44981542  0.01440934  0.16781836    -0.20900
C106        C  0.42182972  0.01061745  0.18055570     0.24800
C107        C  0.41814810  0.00197471  0.21523225    -0.18500
C108        C  0.44216302  0.99643611  0.23627485    -0.08500
C109        C  0.39719729  0.01662147  0.15700894    -0.18700
C110        C  0.37186534  0.00227876  0.15882261    -0.23500
C111        C  0.34890114  0.00559510  0.13219629     0.26900
C112        C  0.33125932  0.98144041  0.12436132    -0.20300
C113        C  0.31052180  0.98312472  0.09811379    -0.09900
C114        C  0.30655406  0.00924144  0.07958706    -0.10500
C115        C  0.32340216  0.03384032  0.08831487    -0.03400
C116        C  0.34448793  0.03201821  0.11427258    -0.18500
H117        H  0.49468515  0.01241431  0.17731838     0.10600
H118        H  0.45324503  0.02200780  0.14154206     0.10600
H119        H  0.39680428  0.00007298  0.22635766     0.10300
H120        H  0.44234914  0.49291502  0.26530931     0.11400
H121        H  0.40113359  0.03122149  0.13535946     0.11500
H122        H  0.36896966  0.98544191  0.17832154     0.13400
H123        H  0.33403259  0.96094833  0.13799438     0.09900
H124        H  0.30078257  0.46401037  0.09535535     0.12000
H125        H  0.32063742  0.05431587  0.07466298     0.08600
H126        H  0.35718321  0.05131485  0.12033968     0.11400
C127        C  0.50631601  0.30532571  0.42165126    -0.03200
C128        C  0.03345097  0.31490415  0.41037780    -0.05800
C129        C  0.03579853  0.33600316  0.38443995    -0.20900
C130        C  0.01110118  0.34799392  0.36898243     0.24800
C131        C  0.48384580  0.33812214  0.38000017    -0.18500
C132        C  0.48151637  0.31697256  0.40599564    -0.08500
C133        C  0.01508936  0.37181762  0.34320016    -0.18700
C134        C  0.49400890  0.38271094  0.32297266    -0.23500
C135        C  0.49762382  0.40909558  0.30077756     0.26900
C136        C  0.47642132  0.41547100  0.27594737    -0.20300
C137        C  0.47722643  0.44170091  0.25731429    -0.09900
C138        C  0.49886458  0.46285134  0.26391143    -0.10500
C139        C  0.02146355  0.45498114  0.28658851    -0.03400
C140        C  0.02055133  0.42898191  0.30529160    -0.18500
H141        H  0.05297334  0.30628994  0.42184140     0.10600
H142        H  0.05709690  0.34320585  0.37664795     0.10600
H143        H  0.46416424  0.34701854  0.36945478     0.10300
H144        H  0.46024652  0.30994498  0.41407422     0.11400
H145        H  0.03670316  0.38067601  0.34113832     0.11500
H146        H  0.47294220  0.37239520  0.32280446     0.13400
H147        H  0.45887402  0.40023920  0.27125446     0.09900
H148        H  0.46074118  0.44504944  0.23796890     0.12000
H149        H  0.03918475  0.46998445  0.29134384     0.08600
H150        H  0.03738557  0.42544286  0.32416101     0.11400
C151        C  0.49616876  0.01752838  0.27381612    -0.03200
C152        C  0.99028697  0.01305367  0.30950488    -0.05800
C153        C  0.49132532  0.03637377  0.33323088    -0.20900
C154        C  0.49619893  0.06502577  0.32201547     0.24800
C155        C  0.49961893  0.07019937  0.28634097    -0.18500
C156        C  0.49929257  0.04680507  0.26258201    -0.08500
C157        C  0.49874321  0.08865485  0.34846293    -0.18700
C158        C  0.49059599  0.11649119  0.34290490    -0.23500
C159        C  0.49259261  0.13921018  0.37052943     0.26900
C160        C  0.47084832  0.16040640  0.37348269    -0.20300
C161        C  0.47189787  0.18157989  0.39993893    -0.09900
C162        C  0.49519137  0.18240709  0.42325361    -0.10500
C163        C  0.51736550  0.16167475  0.41970273    -0.03400
C164        C  0.51598893  0.14012642  0.39375669    -0.18500
H165        H  0.98482596  0.99178463  0.31970352     0.10600
H166        H  0.48785590  0.03196575  0.36053317     0.10600
H167        H  0.50342951  0.09213406  0.27683784     0.10300
H168        H  0.50238995  0.05145628  0.23529850     0.11400
H169        H  0.50608521  0.08246496  0.37419505     0.11500
H170        H  0.48036804  0.12228433  0.31852794     0.13400
H171        H  0.45276816  0.16023938  0.35566381     0.09900
H172        H  0.45471379  0.19755156  0.40187701     0.12000
H173        H  0.03562316  0.16186256  0.43725420     0.08600
H174        H  0.53340666  0.12444799  0.39158539     0.11400
C175        C  0.50549178  0.31056176  0.56786492    -0.03200
C176        C  0.03230497  0.31847013  0.58201106    -0.05800
C177        C  0.03471492  0.34244790  0.60470377    -0.20900
C178        C  0.01038320  0.35904571  0.61395063     0.24800
C179        C  0.48354282  0.35135602  0.59935486    -0.18500
C180        C  0.48113895  0.32729440  0.57672836    -0.08500
C181        C  0.01422804  0.38455650  0.63804251    -0.18700
C182        C  0.49240047  0.39720788  0.65591640    -0.23500
C183        C  0.49587734  0.42218083  0.68086283     0.26900
C184        C  0.47266513  0.42917452  0.70271282    -0.20300
C185        C  0.47449373  0.45233581  0.72657621    -0.09900
C186        C  0.50004140  0.46904143  0.73010506    -0.10500
C187        C  0.02276389  0.46282933  0.70665272    -0.03400
C188        C  0.02089532  0.43966715  0.68268532    -0.18500
H189        H  0.05155336  0.30622973  0.57542973     0.10600
H190        H  0.05573025  0.34801138  0.61515644     0.10600
H191        H  0.46436655  0.36405520  0.60458693     0.10300
H192        H  0.46024053  0.32207771  0.56573067     0.11400
H193        H  0.03612469  0.39214789  0.64219100     0.11500
H194        H  0.47086027  0.38817363  0.65342377     0.13400
H195        H  0.45277116  0.41674578  0.70116586     0.09900
H196        H  0.45536005  0.45729547  0.74144384     0.12000
H197        H  0.04223250  0.47596824  0.70716488     0.08600
H198        H  0.03893241  0.43606202  0.66543774     0.11400
C199        C  0.49313310  0.18200439  0.56971550    -0.03200
C200        C  0.46622633  0.17416850  0.58365008    -0.05800
C201        C  0.46385587  0.15072262  0.60675482    -0.20900
C202        C  0.48825738  0.13452095  0.61651552     0.24800
C203        C  0.01535613  0.14242066  0.60241630    -0.18500
C204        C  0.01769146  0.16596359  0.57950021    -0.08500
C205        C  0.48442868  0.10927421  0.64060416    -0.18700
C206        C  0.00653455  0.09621779  0.65754540    -0.23500
C207        C  0.00331840  0.07113449  0.68190660     0.26900
C208        C  0.02716675  0.06351048  0.70225319    -0.20300
C209        C  0.02580049  0.04020627  0.72546101    -0.09900
C210        C  0.50007211  0.02382699  0.72974665    -0.10500
C211        C  0.47662861  0.03063194  0.70777621    -0.03400
C212        C  0.47797232  0.05410351  0.68455543    -0.18500
H213        H  0.44693641  0.18603902  0.57653037     0.10600
H214        H  0.44279983  0.14516826  0.61698006     0.10600
H215        H  0.03472366  0.13028601  0.60817471     0.10300
H216        H  0.03868734  0.17127239  0.56893940     0.11400
H217        H  0.46252104  0.10194465  0.64514366     0.11500
H218        H  0.02815877  0.10486531  0.65465823     0.13400
H219        H  0.04723498  0.07554666  0.70000630     0.09900
H220        H  0.04542102  0.03483060  0.73906076     0.12000
H221        H  0.45704915  0.01769008  0.70881367     0.08600
H222        H  0.45937859  0.05825319  0.66843418     0.11400
O223        O  0.47431445  0.71694537  0.53414062    -0.71800
O224        O  0.47908601  0.77537209  0.46442751    -0.72000
O225        O  0.47511906  0.71674061  0.46430498    -0.71900
O226        O  0.47834594  0.77600525  0.53408806    -0.71900
O227        O  0.02503891  0.77325455  0.53442904    -0.71900
O228        O  0.02179726  0.71293054  0.46601384    -0.71900
O229        O  0.02571005  0.77163336  0.46463841    -0.71800
O230        O  0.02104961  0.71426948  0.53550867    -0.72000
V231        V  0.47762076  0.74619100  0.49934483     1.35200
V232        V  0.02248883  0.74312172  0.50019534     1.35200
C233        C  0.99688368  0.70531918  0.54642625     0.77400
C234        C  0.50321451  0.78321765  0.45230627     0.77500
C235        C  0.49790597  0.70469422  0.45321734     0.77300
C236        C  0.00225502  0.78517378  0.54573503     0.77300
C237        C  0.49679009  0.99200980  0.24681204    -0.02500
C238        C  0.49810404  0.99692716  0.75423473    -0.02500
O239        O  0.28194780  0.53619997  0.97150949    -0.71800
O240        O  0.22221109  0.53407586  0.03882291    -0.72000
O241        O  0.27994424  0.53443921  0.04133577    -0.71900
O242        O  0.22393270  0.53564515  0.96913434    -0.71900
O243        O  0.22026875  0.98856684  0.96511669    -0.71900
O244        O  0.27552083  0.98700095  0.03767629    -0.71900
O245        O  0.21784135  0.98654832  0.03470970    -0.71800
O246        O  0.27827146  0.98930171  0.96790794    -0.72000
V247        V  0.25203653  0.53417479  0.00510814     1.35200
V248        V  0.24800099  0.98879078  0.00133781     1.35200
C249        C  0.29291943  0.51280754  0.95969166     0.77400
C250        C  0.21173721  0.50999041  0.04892085     0.77500
C251        C  0.28857368  0.51035874  0.05367084     0.75300
C252        C  0.21480249  0.51201165  0.95561603     0.77300
C253        C  0.02525339  0.99442203  0.77777526    -0.03200
C254        C  0.04265703  0.96904854  0.77941520    -0.05800
C255        C  0.06668104  0.96803020  0.80132549    -0.20900
C256        C  0.07388630  0.99197678  0.82265818     0.24800
C257        C  0.05578688  0.01664130  0.82272919    -0.18500
C258        C  0.03180518  0.01770006  0.80087950    -0.08500
C259        C  0.09957553  0.98986130  0.84564099    -0.18700
C260        C  0.11391728  0.01351518  0.85795002    -0.23500
C261        C  0.13926727  0.01231167  0.88172107     0.26900
C262        C  0.14892899  0.03861475  0.89703048    -0.20300
C263        C  0.17219602  0.03882895  0.92012727    -0.09900
C264        C  0.19190191  0.51210827  0.92879627    -0.10500
C265        C  0.17720387  0.98639368  0.91271022    -0.03400
C266        C  0.15398551  0.98616840  0.88951566    -0.18500
H267        H  0.03772415  0.94954321  0.76451212     0.10600
H268        H  0.07971981  0.94834553  0.80162793     0.10600
H269        H  0.05961817  0.03498744  0.84006892     0.10300
H270        H  0.02313968  0.53642610  0.80212172     0.11400
H271        H  0.10682885  0.96798206  0.85189889     0.11500
H272        H  0.10671327  0.03519078  0.85050013     0.13400
H273        H  0.13817489  0.05911184  0.89145818     0.09900
H274        H  0.18778777  0.55937273  0.92708019     0.12000
H275        H  0.18782474  0.96587743  0.91849946     0.08600
H276        H  0.14794671  0.96542674  0.87793528     0.11400
C277        C  0.47267994  0.99911023  0.78040147    -0.03200
C278        C  0.46806182  0.97582740  0.80375509    -0.05800
C279        C  0.44565749  0.97661859  0.82792657    -0.20900
C280        C  0.42721819  0.00087224  0.83016374     0.24800
C281        C  0.43255514  0.02493841  0.80836409    -0.18500
C282        C  0.45512642  0.02421472  0.78423665    -0.08500
C283        C  0.40284971  0.99965620  0.85543171    -0.18700
C284        C  0.38259303  0.02058532  0.85939286    -0.23500
C285        C  0.35832579  0.01802064  0.88441543     0.26900
C286        C  0.34628043  0.04369228  0.89841553    -0.20300
C287        C  0.32344116  0.04223456  0.92202769    -0.09900
C288        C  0.31661003  0.51376750  0.93385860    -0.10500
C289        C  0.32351633  0.98930012  0.91730188    -0.03400
C290        C  0.34644510  0.99076126  0.89373813    -0.18500
H291        H  0.48169827  0.95658495  0.80278207     0.10600
H292        H  0.44256512  0.95794361  0.84475109     0.10600
H293        H  0.41968684  0.04459800  0.80969416     0.10300
H294        H  0.46519823  0.54293042  0.77323290     0.11400
H295        H  0.40160524  0.98031615  0.87163077     0.11500
H296        H  0.38391905  0.04078259  0.84491057     0.13400
H297        H  0.35481891  0.06495663  0.89138221     0.09900
H298        H  0.31684425  0.56112587  0.92942703     0.12000
H299        H  0.31487618  0.96802665  0.92407293     0.08600
H300        H  0.35447146  0.97054844  0.88251800     0.11400
C301        C  0.18870959  0.50938688  0.07547845    -0.03200
C302        C  0.17864867  0.53561364  0.09045477    -0.05800
C303        C  0.15190517  0.03441916  0.11371798    -0.20900
C304        C  0.14147928  0.00760813  0.12629163     0.24800
C305        C  0.15335469  0.98139469  0.11307840    -0.18500
C306        C  0.17470648  0.98213355  0.08740617    -0.08500
C307        C  0.11841086  0.00812522  0.15320110    -0.18700
C308        C  0.10040868  0.98547688  0.15913482    -0.23500
C309        C  0.07544300  0.98710166  0.18337192     0.26900
C310        C  0.05247296  0.96756003  0.17836623    -0.20300
C311        C  0.02787331  0.96923402  0.19912982    -0.09900
C312        C  0.02521254  0.99072112  0.22555220    -0.10500
C313        C  0.04936583  0.00886607  0.23214950    -0.03400
C314        C  0.07397323  0.00728970  0.21112386    -0.18500
H315        H  0.18752712  0.55654984  0.08273434     0.10600
H316        H  0.14330279  0.05493479  0.12352499     0.10600
H317        H  0.14663546  0.96026997  0.12274439     0.10300
H318        H  0.18345042  0.96162844  0.07778579     0.11400
H319        H  0.11484972  0.02878776  0.16664815     0.11500
H320        H  0.10236376  0.96567412  0.14355463     0.13400
H321        H  0.05325138  0.95129034  0.15774470     0.09900
H322        H  0.01033073  0.95410541  0.19399008     0.12000
H323        H  0.05378808  0.52391903  0.25418562     0.08600
H324        H  0.09190134  0.02165847  0.21708689     0.11400
C325        C  0.47049135  0.99785634  0.22282196    -0.03200
C326        C  0.47570831  0.51064146  0.18949572    -0.05800
C327        C  0.45136640  0.51671282  0.16961446    -0.20900
C328        C  0.42372258  0.51294538  0.18333497     0.24800
C329        C  0.42077988  0.50453130  0.21816928    -0.18500
C330        C  0.44523885  0.49893253  0.23837525    -0.08500
C331        C  0.39864445  0.51865265  0.16056552    -0.18700
C332        C  0.37365016  0.50380992  0.16291173    -0.23500
C333        C  0.35050627  0.50673949  0.13656028     0.26900
C334        C  0.33348392  0.48221356  0.12837725    -0.20300
C335        C  0.31317393  0.48349071  0.10161949    -0.09900
C336        C  0.30914709  0.50952419  0.08294167    -0.10500
C337        C  0.32513415  0.53452531  0.09229941    -0.03400
C338        C  0.34569186  0.53314747  0.11880158    -0.18500
H339        H  0.49638829  0.51488992  0.17765749     0.10600
H340        H  0.45418302  0.52416057  0.14316894     0.10600
H341        H  0.39967865  0.50269344  0.22996760     0.10300
H342        H  0.43864486  0.99052746  0.26313493     0.11400
H343        H  0.40203688  0.53332415  0.13885092     0.11500
H344        H  0.37133485  0.48684298  0.18236792     0.13400
H345        H  0.33655570  0.46174475  0.14196680     0.09900
H346        H  0.29760369  0.96391002  0.09226556     0.12000
H347        H  0.32218771  0.55497743  0.07865339     0.08600
H348        H  0.35781705  0.55273564  0.12525269     0.11400
C349        C  0.50505061  0.80535208  0.42445998    -0.03200
C350        C  0.03152621  0.81177607  0.40877908    -0.05800
C351        C  0.03334309  0.83296602  0.38285241    -0.20900
C352        C  0.00871608  0.84821688  0.37198487     0.24800
C353        C  0.48219700  0.84176172  0.38759602    -0.18500
C354        C  0.48033043  0.82048175  0.41349981    -0.08500
C355        C  0.01225558  0.87191554  0.34601126    -0.18700
C356        C  0.49066721  0.88333885  0.32723035    -0.23500
C357        C  0.49419460  0.90915833  0.30416651     0.26900
C358        C  0.47336778  0.91461525  0.27858857    -0.20300
C359        C  0.47437027  0.94024184  0.25880219    -0.09900
C360        C  0.49571269  0.96177624  0.26507957    -0.10500
C361        C  0.01777185  0.95479274  0.28885693    -0.03400
C362        C  0.01665696  0.92938422  0.30868239    -0.18500
H363        H  0.05096781  0.80046435  0.41655449     0.10600
H364        H  0.05417201  0.83761168  0.37138092     0.10600
H365        H  0.46285862  0.85360820  0.38079872     0.10300
H366        H  0.45957968  0.81621157  0.42534515     0.11400
H367        H  0.03403387  0.87987337  0.34192401     0.11500
H368        H  0.46935288  0.87358690  0.32867927     0.13400
H369        H  0.45605016  0.89907434  0.27408827     0.09900
H370        H  0.45825850  0.94284222  0.23884568     0.12000
H371        H  0.03521763  0.97013895  0.29355740     0.08600
H372        H  0.03300622  0.92647471  0.32835327     0.11400
C373        C  0.50032747  0.51840230  0.27453344    -0.03200
C374        C  0.99579342  0.51330749  0.31038074    -0.05800
C375        C  0.49740368  0.53605760  0.33462205    -0.20900
C376        C  0.50198394  0.56488653  0.32393297     0.24800
C377        C  0.50459739  0.57075663  0.28834720    -0.18500
C378        C  0.50356454  0.54785243  0.26399186    -0.08500
C379        C  0.50458693  0.58823626  0.35060431    -0.18700
C380        C  0.49293266  0.61494091  0.34665094    -0.23500
C381        C  0.49454401  0.63770769  0.37421943     0.26900
C382        C  0.47114857  0.65669439  0.37924966    -0.20300
C383        C  0.47206603  0.67826272  0.40523060    -0.09900
C384        C  0.49673578  0.68167047  0.42607182    -0.10500
C385        C  0.52039749  0.66302383  0.42056020    -0.03400
C386        C  0.51925883  0.64111294  0.39502644    -0.18500
H387        H  0.99050601  0.49187150  0.32020945     0.10600
H388        H  0.49459944  0.53119338  0.36192136     0.10600
H389        H  0.50815040  0.59291836  0.27940789     0.10300
H390        H  0.50604151  0.55301221  0.23674709     0.11400
H391        H  0.51455444  0.58255749  0.37519482     0.11500
H392        H  0.48023192  0.61954560  0.32361082     0.13400
H393        H  0.45198024  0.65456214  0.36333867     0.09900
H394        H  0.45361062  0.69248779  0.40874789     0.12000
H395        H  0.03983041  0.66528834  0.43630464     0.08600
H396        H  0.53788439  0.62718835  0.39119549     0.11400
C397        C  0.50364454  0.80952476  0.57123431    -0.03200
C398        C  0.03003809  0.81818656  0.58596152    -0.05800
C399        C  0.03144729  0.84202042  0.60895181    -0.20900
C400        C  0.00653046  0.85786812  0.61779852     0.24800
C401        C  0.48008180  0.84918850  0.60295870    -0.18500
C402        C  0.47865747  0.82524012  0.58011706    -0.08500
C403        C  0.00948525  0.88358188  0.64166549    -0.18700
C404        C  0.48718499  0.89694455  0.65752378    -0.23500
C405        C  0.49041687  0.92243216  0.68159916     0.26900
C406        C  0.46775423  0.92903451  0.70440433    -0.20300
C407        C  0.46970351  0.95266993  0.72758558    -0.09900
C408        C  0.49481423  0.97025299  0.72923886    -0.10500
C409        C  0.01684015  0.96439348  0.70481103    -0.03400
C410        C  0.01476884  0.94085867  0.68150552    -0.18500
H411        H  0.04970881  0.80659253  0.57955575     0.10600
H412        H  0.05217532  0.84817420  0.61977824     0.10600
H413        H  0.46041587  0.86109968  0.60807846     0.10300
H414        H  0.45801087  0.81938086  0.56887333     0.11400
H415        H  0.03125936  0.89091173  0.64730208     0.11500
H416        H  0.46557153  0.88830775  0.65423668     0.13400
H417        H  0.44830573  0.91583873  0.70426152     0.09900
H418        H  0.45106260  0.95714748  0.74352902     0.12000
H419        H  0.03594217  0.97806149  0.70402697     0.08600
H420        H  0.03215534  0.93755581  0.66320800     0.11400
C421        C  0.49502119  0.68117723  0.57192395    -0.03200
C422        C  0.46828640  0.67233987  0.58546243    -0.05800
C423        C  0.46652584  0.64874564  0.60841455    -0.20900
C424        C  0.49137873  0.63337077  0.61843544     0.24800
C425        C  0.01826722  0.64235762  0.60483828    -0.18500
C426        C  0.02000996  0.66608961  0.58211228    -0.08500
C427        C  0.48810431  0.60803343  0.64253149    -0.18700
C428        C  0.01037358  0.59499975  0.65901401    -0.23500
C429        C  0.00743665  0.56990688  0.68344923     0.26900
C430        C  0.03160720  0.56196469  0.70310149    -0.20300
C431        C  0.03043918  0.53860996  0.72629919    -0.09900
C432        C  0.50466892  0.52253551  0.73132859    -0.10500
C433        C  0.48083577  0.52975762  0.71020515    -0.03400
C434        C  0.48197015  0.55324474  0.68702506    -0.18500
H435        H  0.44865866  0.68354140  0.57815238     0.10600
H436        H  0.44557539  0.64243311  0.61832983     0.10600
H437        H  0.03800545  0.63096839  0.61087807     0.10300
H438        H  0.04091253  0.67221781  0.57191397     0.11400
H439        H  0.46628591  0.60066841  0.64751646     0.11500
H440        H  0.03196849  0.60358675  0.65568676     0.13400
H441        H  0.05175807  0.57376700  0.70028828     0.09900
H442        H  0.05022677  0.53290041  0.73936442     0.12000
H443        H  0.46110261  0.51711034  0.71184425     0.08600
H444        H  0.46303858  0.55766701  0.67161213     0.11400
O445        O  0.97340343  0.21826477  0.53186601    -0.71800
O446        O  0.97954096  0.27594328  0.46145926    -0.72000
O447        O  0.97420466  0.21752288  0.46190186    -0.71900
O448        O  0.97895559  0.27732661  0.53118747    -0.71900
O449        O  0.52557494  0.27290158  0.53182431    -0.71900
O450        O  0.52076423  0.21281666  0.46331686    -0.71900
O451        O  0.52615937  0.27140573  0.46215689    -0.71800
O452        O  0.51997786  0.21400335  0.53281065    -0.72000
V453        V  0.97741684  0.24715392  0.49674294     1.35200
V454        V  0.52219712  0.24289099  0.49758203     1.35200
C455        C  0.49559208  0.20593105  0.54398754     0.77400
C456        C  0.00387047  0.28334089  0.44954982     0.77500
C457        C  0.99675969  0.20512308  0.45063030     0.77300
C458        C  0.50320953  0.28581606  0.54277971     0.77300
C459        C  0.99998306  0.49354966  0.24679164    -0.02500
C460        C  0.00285686  0.49552517  0.75553215    -0.02500
O461        O  0.77720234  0.03693726  0.96979088    -0.71800
O462        O  0.71802861  0.03412949  0.03774987    -0.72000
O463        O  0.77601160  0.03464534  0.03949370    -0.71900
O464        O  0.71908218  0.03615154  0.96815729    -0.71900
O465        O  0.72521054  0.48812332  0.96636266    -0.71900
O466        O  0.77910452  0.48680020  0.04041325    -0.71900
O467        O  0.72161652  0.48650936  0.03591573    -0.71800
O468        O  0.78315084  0.48861676  0.97064411    -0.72000
V469        V  0.74760417  0.03455232  0.00369154     1.35200
V470        V  0.75231220  0.48844110  0.00328883     1.35200
C471        C  0.78810054  0.01370242  0.95746238     0.77400
C472        C  0.70779565  0.00993050  0.04783423     0.77500
C473        C  0.78517257  0.01047149  0.05105050     0.75300
C474        C  0.70970962  0.01255995  0.95474587     0.77300
C475        C  0.52972726  0.49326018  0.77951686    -0.03200
C476        C  0.54681577  0.46775047  0.78208302    -0.05800
C477        C  0.57083327  0.46699511  0.80404151    -0.20900
C478        C  0.57842132  0.49141012  0.82442937     0.24800
C479        C  0.56060167  0.51626300  0.82368980    -0.18500
C480        C  0.53648049  0.51697708  0.80194748    -0.08500
C481        C  0.60416763  0.48951332  0.84737246    -0.18700
C482        C  0.61942040  0.51312879  0.85814670    -0.23500
C483        C  0.64500822  0.51191752  0.88166933     0.26900
C484        C  0.65645434  0.53844007  0.89447428    -0.20300
C485        C  0.67960401  0.53859633  0.91779321    -0.09900
C486        C  0.68634745  0.01272693  0.92851515    -0.10500
C487        C  0.68119348  0.48565239  0.91523596    -0.03400
C488        C  0.65807216  0.48546796  0.89192088    -0.18500
H489        H  0.54161444  0.44797490  0.76781302     0.10600
H490        H  0.58362467  0.44716459  0.80504692     0.10600
H491        H  0.56481779  0.53500509  0.84030739     0.10300
H492        H  0.51819530  0.03704803  0.80164407     0.11400
H493        H  0.61077926  0.46768149  0.85470303     0.11500
H494        H  0.61282153  0.53469577  0.84951152     0.13400
H495        H  0.64710522  0.55917829  0.88689781     0.09900
H496        H  0.67872037  0.05949794  0.93183642     0.12000
H497        H  0.69036451  0.46490394  0.92305467     0.08600
H498        H  0.65071305  0.46445092  0.88238652     0.11400
C499        C  0.97714219  0.49729878  0.78134711    -0.03200
C500        C  0.97144895  0.47316772  0.80307872    -0.05800
C501        C  0.94858384  0.47355245  0.82666593    -0.20900
C502        C  0.93102104  0.49837704  0.83031210     0.24800
C503        C  0.93756840  0.52326723  0.81036771    -0.18500
C504        C  0.96039710  0.52282273  0.78654648    -0.08500
C505        C  0.90680365  0.49722530  0.85583304    -0.18700
C506        C  0.88607906  0.51778501  0.85925092    -0.23500
C507        C  0.86225538  0.51574807  0.88508944     0.26900
C508        C  0.84893671  0.54164594  0.89668009    -0.20300
C509        C  0.82653121  0.54071133  0.92098695    -0.09900
C510        C  0.81192566  0.01509900  0.93188045    -0.10500
C511        C  0.82959586  0.48778764  0.92189345    -0.03400
C512        C  0.85207086  0.48872594  0.89767157    -0.18500
H513        H  0.98453025  0.45357204  0.80118203     0.10600
H514        H  0.94458314  0.45421890  0.84212288     0.10600
H515        H  0.92561806  0.54342838  0.81325802     0.10300
H516        H  0.95886902  0.04376603  0.76930238     0.11400
H517        H  0.90621796  0.47830038  0.87272156     0.11500
H518        H  0.88663424  0.53729610  0.84341803     0.13400
H519        H  0.85610355  0.56272448  0.88715689     0.09900
H520        H  0.81503399  0.06254386  0.93277241     0.12000
H521        H  0.82228986  0.46666786  0.93110402     0.08600
H522        H  0.86098349  0.46819485  0.88849117     0.11400
C523        C  0.68485310  0.00904704  0.07456202    -0.03200
C524        C  0.67323305  0.03518144  0.08803513    -0.05800
C525        C  0.65693299  0.53518023  0.11558914    -0.20900
C526        C  0.64470288  0.50857989  0.12627845     0.24800
C527        C  0.65523579  0.48221359  0.11187161    -0.18500
C528        C  0.67692858  0.48265512  0.08665329    -0.08500
C529        C  0.62127823  0.50940136  0.15262751    -0.18700
C530        C  0.60203057  0.48756900  0.15682370    -0.23500
C531        C  0.57730164  0.48919780  0.18129351     0.26900
C532        C  0.55369525  0.47062509  0.17553009    -0.20300
C533        C  0.52954994  0.47197893  0.19702512    -0.09900
C534        C  0.52785956  0.49248157  0.22462657    -0.10500
C535        C  0.55256602  0.50966240  0.23175362    -0.03400
C536        C  0.57683715  0.50818913  0.21024298    -0.18500
H537        H  0.68064423  0.05626373  0.07881594     0.10600
H538        H  0.64946082  0.55577397  0.12647842     0.10600
H539        H  0.64717575  0.46116167  0.12021600     0.10300
H540        H  0.68454997  0.46205003  0.07597646     0.11400
H541        H  0.61875541  0.52961621  0.16732377     0.11500
H542        H  0.60301668  0.46845400  0.13994989     0.13400
H543        H  0.55371731  0.45524930  0.15394564     0.09900
H544        H  0.51157121  0.45748431  0.19151222     0.12000
H545        H  0.54979308  0.02421063  0.25364719     0.08600
H546        H  0.59529079  0.52164709  0.21680947     0.11400
C547        C  0.97324278  0.50026411  0.22394404    -0.03200
C548        C  0.97377831  0.00815721  0.18841065    -0.05800
C549        C  0.94988698  0.01437334  0.16772925    -0.20900
C550        C  0.92188809  0.01059540  0.18043338     0.24800
C551        C  0.91817187  0.00195826  0.21510508    -0.18500
C552        C  0.94216132  0.99640803  0.23617800    -0.08500
C553        C  0.89726644  0.01660308  0.15687351    -0.18700
C554        C  0.87194998  0.00223074  0.15866619    -0.23500
C555        C  0.84896699  0.00557220  0.13207471     0.26900
C556        C  0.83138837  0.98139390  0.12414186    -0.20300
C557        C  0.81062657  0.98311046  0.09792834    -0.09900
C558        C  0.80657029  0.00928050  0.07953330    -0.10500
C559        C  0.82334998  0.03390184  0.08837138    -0.03400
C560        C  0.84446369  0.03204808  0.11429506    -0.18500
H561        H  0.99475087  0.01234652  0.17729290     0.10600
H562        H  0.95334149  0.02196790  0.14145610     0.10600
H563        H  0.89681757  0.00007001  0.22620466     0.10300
H564        H  0.94238762  0.49299212  0.26537129     0.11400
H565        H  0.90118730  0.03123922  0.13525346     0.11500
H566        H  0.86907856  0.98535680  0.17812561     0.13400
H567        H  0.83423174  0.96086109  0.13766842     0.09900
H568        H  0.80071394  0.46398979  0.09553282     0.12000
H569        H  0.82051442  0.05441868  0.07482764     0.08600
H570        H  0.85711355  0.05135710  0.12044892     0.11400
C571        C  0.00626336  0.30534882  0.42165430    -0.03200
C572        C  0.53349999  0.31501892  0.41053001    -0.05800
C573        C  0.53584411  0.33611554  0.38458742    -0.20900
C574        C  0.51114778  0.34796549  0.36897076     0.24800
C575        C  0.98379355  0.33829930  0.38017261    -0.18500
C576        C  0.98145978  0.31714360  0.40616275    -0.08500
C577        C  0.51512150  0.37179317  0.34318617    -0.18700
C578        C  0.99397706  0.38275093  0.32299989    -0.23500
C579        C  0.99760530  0.40912921  0.30079629     0.26900
C580        C  0.97638554  0.41553503  0.27599925    -0.20300
C581        C  0.97720856  0.44176280  0.25736274    -0.09900
C582        C  0.99887881  0.46288610  0.26393190    -0.10500
C583        C  0.52143644  0.45497912  0.28660314    -0.03400
C584        C  0.52053617  0.42898209  0.30531188    -0.18500
H585        H  0.55301839  0.30652036  0.42212485     0.10600
H586        H  0.55713710  0.34343040  0.37692094     0.10600
H587        H  0.96411958  0.34732512  0.36975913     0.10300
H588        H  0.96018754  0.31023114  0.41436954     0.11400
H589        H  0.53672456  0.38068294  0.34114673     0.11500
H590        H  0.97290317  0.37244722  0.32285227     0.13400
H591        H  0.95881230  0.40032838  0.27133370     0.09900
H592        H  0.96071152  0.44512904  0.23803729     0.12000
H593        H  0.53913380  0.47000649  0.29138159     0.08600
H594        H  0.53735176  0.42546832  0.32421271     0.11400
C595        C  0.99611259  0.01746714  0.27381180    -0.03200
C596        C  0.49049163  0.01311684  0.30954145    -0.05800
C597        C  0.99108645  0.03629678  0.33321545    -0.20900
C598        C  0.99608258  0.06493992  0.32204558     0.24800
C599        C  0.99964016  0.07012022  0.28639071    -0.18500
C600        C  0.99932881  0.04674066  0.26261178    -0.08500
C601        C  0.99861058  0.08855388  0.34851702    -0.18700
C602        C  0.99058584  0.11641991  0.34291252    -0.23500
C603        C  0.99259815  0.13914918  0.37052141     0.26900
C604        C  0.97090415  0.16040410  0.37340050    -0.20300
C605        C  0.97196992  0.18160168  0.39982723    -0.09900
C606        C  0.99523336  0.18239679  0.42318582    -0.10500
C607        C  0.01736784  0.16161117  0.41970053    -0.03400
C608        C  0.01596897  0.14003257  0.39378719    -0.18500
H609        H  0.48512333  0.99184046  0.31978542     0.10600
H610        H  0.98750153  0.03188522  0.36049522     0.10600
H611        H  0.00354417  0.09204812  0.27692026     0.10300
H612        H  0.00251983  0.05139808  0.23534537     0.11400
H613        H  0.00585322  0.08234284  0.37428300     0.11500
H614        H  0.98045220  0.12224485  0.31848969     0.13400
H615        H  0.95284730  0.16026396  0.35554732     0.09900
H616        H  0.95481849  0.19761363  0.40171312     0.12000
H617        H  0.53564335  0.16195102  0.43722215     0.08600
H618        H  0.03334778  0.12430421  0.39166969     0.11400
C619        C  0.00544177  0.31050883  0.56787436    -0.03200
C620        C  0.53233238  0.31845750  0.58211318    -0.05800
C621        C  0.53472397  0.34241009  0.60484855    -0.20900
C622        C  0.51039731  0.35904983  0.61401643     0.24800
C623        C  0.98349718  0.35127228  0.59942825    -0.18500
C624        C  0.98107595  0.32718584  0.57683707    -0.08500
C625        C  0.51421726  0.38451756  0.63817804    -0.18700
C626        C  0.99244876  0.39715738  0.65593373    -0.23500
C627        C  0.99592333  0.42215849  0.68084360     0.26900
C628        C  0.97271722  0.42913320  0.70271079    -0.20300
C629        C  0.97452622  0.45231039  0.72655024    -0.09900
C630        C  0.00005220  0.46905079  0.73004782    -0.10500
C631        C  0.52275249  0.46280623  0.70671703    -0.03400
C632        C  0.52086660  0.43965943  0.68273325    -0.18500
H633        H  0.55157191  0.30617606  0.57560232     0.10600
H634        H  0.55571893  0.34791705  0.61540198     0.10600
H635        H  0.96431102  0.36393594  0.60473293     0.10300
H636        H  0.96015677  0.32191377  0.56593370     0.11400
H637        H  0.53612398  0.39200786  0.64251042     0.11500
H638        H  0.97093870  0.38801991  0.65359360     0.13400
H639        H  0.95283845  0.41667704  0.70119452     0.09900
H640        H  0.95539311  0.45724864  0.74142760     0.12000
H641        H  0.54223285  0.47592621  0.70724136     0.08600
H642        H  0.53890093  0.43604741  0.66548224     0.11400
C643        C  0.99319734  0.18196213  0.56966015    -0.03200
C644        C  0.96628425  0.17399935  0.58347127    -0.05800
C645        C  0.96395465  0.15056809  0.60660026    -0.20900
C646        C  0.98840234  0.13449988  0.61650669     0.24800
C647        C  0.51520006  0.14230785  0.60229665    -0.18500
C648        C  0.51757857  0.16586375  0.57940581    -0.08500
C649        C  0.98459637  0.10927072  0.64063253    -0.18700
C650        C  0.50635728  0.09630995  0.65763049    -0.23500
C651        C  0.50317489  0.07118359  0.68193844     0.26900
C652        C  0.52702889  0.06357812  0.70228762    -0.20300
C653        C  0.52569619  0.04024201  0.72545478    -0.09900
C654        C  0.00014952  0.02384002  0.72979282    -0.10500
C655        C  0.97670721  0.03066760  0.70783164    -0.03400
C656        C  0.97808442  0.05410844  0.68457169    -0.18500
H657        H  0.94695825  0.18575961  0.57623784     0.10600
H658        H  0.94289017  0.14491763  0.61672627     0.10600
H659        H  0.53451480  0.13004032  0.60792954     0.10300
H660        H  0.53856268  0.17106486  0.56873687     0.11400
H661        H  0.96268265  0.10201508  0.64529471     0.11500
H662        H  0.52795046  0.10507369  0.65486333     0.13400
H663        H  0.54707565  0.07565607  0.70007672     0.09900
H664        H  0.54531731  0.03489013  0.73906670     0.12000
H665        H  0.95710855  0.01775737  0.70889248     0.08600
H666        H  0.95949520  0.05826914  0.66844631     0.11400
O667        O  0.97434114  0.71698233  0.53423252    -0.71800
O668        O  0.97905374  0.77536670  0.46449037    -0.72000
O669        O  0.97514861  0.71672304  0.46441128    -0.71900
O670        O  0.97831966  0.77604107  0.53413584    -0.71900
O671        O  0.52506233  0.77318026  0.53437895    -0.71900
O672        O  0.52176327  0.71289369  0.46591009    -0.71900
O673        O  0.52573731  0.77158408  0.46457497    -0.71800
O674        O  0.52101990  0.71418976  0.53541313    -0.72000
V675        V  0.97762046  0.74620424  0.49942009     1.35200
V676        V  0.52248535  0.74306309  0.50011931     1.35200
C677        C  0.49684754  0.70525477  0.54632949     0.77400
C678        C  0.00317328  0.78324821  0.45238171     0.77500
C679        C  0.99794739  0.70468545  0.45334322     0.77300
C680        C  0.50228751  0.78511165  0.54569786     0.77300
C681        C  0.99676458  0.99195379  0.24680059    -0.02500
C682        C  0.99816591  0.99693721  0.75427518    -0.02500
O683        O  0.78198856  0.53618222  0.97160380    -0.71800
O684        O  0.72222792  0.53405008  0.03888014    -0.72000
O685        O  0.77995604  0.53439621  0.04142261    -0.71900
O686        O  0.72397034  0.53564765  0.96920300    -0.71900
O687        O  0.72026903  0.98863431  0.96507569    -0.71900
O688        O  0.77553599  0.98706313  0.03761208    -0.71900
O689        O  0.71785597  0.98659463  0.03466026    -0.71800
O690        O  0.77827548  0.98938340  0.96785461    -0.72000
V691        V  0.75206340  0.53415225  0.00518323     1.35200
V692        V  0.74801015  0.98885639  0.00128486     1.35200
C693        C  0.79297037  0.51279344  0.95979013     0.77400
C694        C  0.71173640  0.50996638  0.04895559     0.77500
C695        C  0.78856581  0.51031203  0.05376501     0.75300
C696        C  0.71484221  0.51202780  0.95565025     0.77300
C697        C  0.52518631  0.99443242  0.77775393    -0.03200
C698        C  0.54260674  0.96907077  0.77940652    -0.05800
C699        C  0.56661582  0.96806304  0.80134168    -0.20900
C700        C  0.57378689  0.99200389  0.82270095     0.24800
C701        C  0.55566969  0.01665582  0.82276028    -0.18500
C702        C  0.53170835  0.01770858  0.80087435    -0.08500
C703        C  0.59946588  0.98989221  0.84570789    -0.18700
C704        C  0.61375963  0.01354507  0.85810656    -0.23500
C705        C  0.63913179  0.01234314  0.88185130     0.26900
C706        C  0.64884540  0.03865863  0.89708596    -0.20300
C707        C  0.67215121  0.03888478  0.92012858    -0.09900
C708        C  0.69194467  0.51216422  0.92882011    -0.10500
C709        C  0.67708503  0.98643290  0.91282510    -0.03400
C710        C  0.65382620  0.98619444  0.88968859    -0.18500
H711        H  0.53769826  0.94956294  0.76449736     0.10600
H712        H  0.57966747  0.94838718  0.80164658     0.10600
H713        H  0.55947045  0.03499809  0.84011469     0.10300
H714        H  0.52316309  0.53645978  0.80210416     0.11400
H715        H  0.60676590  0.96801299  0.85188451     0.11500
H716        H  0.60651865  0.03522316  0.85072042     0.13400
H717        H  0.63810811  0.05915987  0.89148888     0.09900
H718        H  0.68746732  0.55941146  0.92768289     0.12000
H719        H  0.68768559  0.96591213  0.91864527     0.08600
H720        H  0.64773825  0.96543555  0.87819261     0.11400
C721        C  0.97275340  0.99911880  0.78045338    -0.03200
C722        C  0.96813350  0.97582711  0.80379545    -0.05800
C723        C  0.94571298  0.97660031  0.82794541    -0.20900
C724        C  0.92726552  0.00084811  0.83017754     0.24800
C725        C  0.93260653  0.02492176  0.80838959    -0.18500
C726        C  0.95519352  0.02421586  0.78428571    -0.08500
C727        C  0.90287598  0.99961548  0.85541464    -0.18700
C728        C  0.88270516  0.02061556  0.85949460    -0.23500
C729        C  0.85841333  0.01806236  0.88448521     0.26900
C730        C  0.84639955  0.04374225  0.89850841    -0.20300
C731        C  0.82353162  0.04230276  0.92208267    -0.09900
C732        C  0.81667006  0.51376666  0.93396601    -0.10500
C733        C  0.82352369  0.98937276  0.91728302    -0.03400
C734        C  0.84647518  0.99081521  0.89375233    -0.18500
H735        H  0.98177337  0.95658713  0.80281949     0.10600
H736        H  0.94261507  0.95791742  0.84475628     0.10600
H737        H  0.91972097  0.04456974  0.80969452     0.10300
H738        H  0.96508386  0.54291741  0.77300472     0.11400
H739        H  0.90155773  0.98021479  0.87150242     0.11500
H740        H  0.88412850  0.04087215  0.84514283     0.13400
H741        H  0.85498178  0.06499910  0.89151886     0.09900
H742        H  0.81691157  0.56112866  0.92958602     0.12000
H743        H  0.81484211  0.96810710  0.92401303     0.08600
H744        H  0.85446981  0.97059676  0.88251500     0.11400
C745        C  0.68871167  0.50937128  0.07551821    -0.03200
C746        C  0.67860754  0.53561169  0.09041978    -0.05800
C747        C  0.65189084  0.03445348  0.11363861    -0.20900
C748        C  0.64147804  0.00764481  0.12623054     0.24800
C749        C  0.65335664  0.98142902  0.11302735    -0.18500
C750        C  0.67470999  0.98216571  0.08735456    -0.08500
C751        C  0.61841999  0.00817098  0.15315030    -0.18700
C752        C  0.60039034  0.98554277  0.15906304    -0.23500
C753        C  0.57542424  0.98718593  0.18329909     0.26900
C754        C  0.55244020  0.96766296  0.17828656    -0.20300
C755        C  0.52785273  0.96933177  0.19907065    -0.09900
C756        C  0.52521231  0.99080290  0.22551348    -0.10500
C757        C  0.54936714  0.00895048  0.23209377    -0.03400
C758        C  0.57396818  0.00736992  0.21105746    -0.18500
H759        H  0.68743358  0.55654854  0.08261745     0.10600
H760        H  0.64328141  0.05496983  0.12343403     0.10600
H761        H  0.64663937  0.96030723  0.12270585     0.10300
H762        H  0.68346221  0.96166091  0.07774411     0.11400
H763        H  0.61488449  0.02883038  0.16661360     0.11500
H764        H  0.60232518  0.96574760  0.14346433     0.13400
H765        H  0.55320335  0.95140345  0.15765304     0.09900
H766        H  0.51030531  0.95420776  0.19393624     0.12000
H767        H  0.55370440  0.52396924  0.25417851     0.08600
H768        H  0.59190262  0.02173028  0.21702040     0.11400
C769        C  0.97050153  0.99781225  0.22276456    -0.03200
C770        C  0.97573136  0.51072218  0.18955155    -0.05800
C771        C  0.95138458  0.51675653  0.16966241    -0.20900
C772        C  0.92374278  0.51294914  0.18337586     0.24800
C773        C  0.92080794  0.50455934  0.21822010    -0.18500
C774        C  0.94527210  0.49900247  0.23843414    -0.08500
C775        C  0.89866001  0.51860311  0.16059196    -0.18700
C776        C  0.87365161  0.50378939  0.16299874    -0.23500
C777        C  0.85049253  0.50670920  0.13666376     0.26900
C778        C  0.83343970  0.48219322  0.12852666    -0.20300
C779        C  0.81312671  0.48346243  0.10176807    -0.09900
C780        C  0.80912834  0.50947903  0.08304838    -0.10500
C781        C  0.82513786  0.53447412  0.09237245    -0.03400
C782        C  0.84569652  0.53310366  0.11887188    -0.18500
H783        H  0.99640949  0.51498884  0.17771668     0.10600
H784        H  0.95419641  0.52419980  0.14321436     0.10600
H785        H  0.89970904  0.50270303  0.23001952     0.10300
H786        H  0.93861266  0.99050434  0.26303371     0.11400
H787        H  0.90205172  0.53322667  0.13883155     0.11500
H788        H  0.87132533  0.48686333  0.18250230     0.13400
H789        H  0.83649348  0.46173668  0.14214759     0.09900
H790        H  0.79776426  0.96387478  0.09199712     0.12000
H791        H  0.82221198  0.55491530  0.07869721     0.08600
H792        H  0.85784128  0.55268670  0.12529113     0.11400
C793        C  0.00497810  0.80540969  0.42457119    -0.03200
C794        C  0.53161504  0.81169104  0.40868687    -0.05800
C795        C  0.53346968  0.83287397  0.38275188    -0.20900
C796        C  0.50886389  0.84814281  0.37184994     0.24800
C797        C  0.98207000  0.84183003  0.38777563    -0.18500
C798        C  0.98024069  0.82054022  0.41366868    -0.08500
C799        C  0.51244028  0.87186867  0.34591007    -0.18700
C800        C  0.99045785  0.88341567  0.32740226    -0.23500
C801        C  0.99401380  0.90919456  0.30429124     0.26900
C802        C  0.97323102  0.91462076  0.27865255    -0.20300
C803        C  0.97429257  0.94020953  0.25880118    -0.09900
C804        C  0.99564602  0.96173255  0.26508170    -0.10500
C805        C  0.51788461  0.95481221  0.28878628    -0.03400
C806        C  0.51683012  0.92936040  0.30854872    -0.18500
H807        H  0.55104338  0.80037166  0.41649417     0.10600
H808        H  0.55431235  0.83750749  0.37130964     0.10600
H809        H  0.96271877  0.85366793  0.38101110     0.10300
H810        H  0.95950423  0.81625627  0.42554339     0.11400
H811        H  0.53421414  0.87987494  0.34192601     0.11500
H812        H  0.96912335  0.87371949  0.32893007     0.13400
H813        H  0.95590825  0.89908583  0.27415252     0.09900
H814        H  0.95821442  0.94279655  0.23880215     0.12000
H815        H  0.53532969  0.97016214  0.29347307     0.08600
H816        H  0.53322215  0.92642547  0.32816125     0.11400
C817        C  0.00041227  0.51843310  0.27457476    -0.03200
C818        C  0.49569117  0.51328459  0.31033793    -0.05800
C819        C  0.99755633  0.53606700  0.33467770    -0.20900
C820        C  0.00217420  0.56489363  0.32400376     0.24800
C821        C  0.00477615  0.57077530  0.28841885    -0.18500
C822        C  0.00369057  0.54788295  0.26404879    -0.08500
C823        C  0.00479879  0.58823091  0.35068938    -0.18700
C824        C  0.99312549  0.61492958  0.34676859    -0.23500
C825        C  0.99468832  0.63766449  0.37437735     0.26900
C826        C  0.97124449  0.65658185  0.37944428    -0.20300
C827        C  0.97212251  0.67814587  0.40543067    -0.09900
C828        C  0.99680110  0.68162408  0.42623947    -0.10500
C829        C  0.02049921  0.66302448  0.42071928    -0.03400
C830        C  0.01939960  0.64111362  0.39518033    -0.18500
H831        H  0.49042897  0.49184518  0.32017506     0.10600
H832        H  0.99475715  0.53119533  0.36197584     0.10600
H833        H  0.00835445  0.59293641  0.27949134     0.10300
H834        H  0.00615878  0.55305034  0.23680494     0.11400
H835        H  0.01476828  0.58253922  0.37527464     0.11500
H836        H  0.98042259  0.61954289  0.32373254     0.13400
H837        H  0.95207295  0.65440587  0.36354673     0.09900
H838        H  0.95363401  0.69232348  0.40896425     0.12000
H839        H  0.53972509  0.66524092  0.43616081     0.08600
H840        H  0.03805413  0.62723226  0.39133162     0.11400
C841        C  0.00359999  0.80960309  0.57124275    -0.03200
C842        C  0.53008571  0.81810124  0.58595282    -0.05800
C843        C  0.53149927  0.84192137  0.60896868    -0.20900
C844        C  0.50658380  0.85776378  0.61784226     0.24800
C845        C  0.98003119  0.84929054  0.60291150    -0.18500
C846        C  0.97861094  0.82532700  0.58009351    -0.08500
C847        C  0.50953974  0.88347536  0.64172309    -0.18700
C848        C  0.98713414  0.89704252  0.65747816    -0.23500
C849        C  0.99038553  0.92251178  0.68157044     0.26900
C850        C  0.96774464  0.92909987  0.70441042    -0.20300
C851        C  0.96972443  0.95271173  0.72761937    -0.09900
C852        C  0.99484850  0.97027660  0.72926995    -0.10500
C853        C  0.51682491  0.96436151  0.70480508    -0.03400
C854        C  0.51479074  0.94079246  0.68153802    -0.18500
H855        H  0.54975532  0.80651380  0.57952525     0.10600
H856        H  0.55223002  0.84807114  0.61979029     0.10600
H857        H  0.96036663  0.86121007  0.60801348     0.10300
H858        H  0.95796810  0.81946177  0.56884390     0.11400
H859        H  0.53131269  0.89080686  0.64736477     0.11500
H860        H  0.96551967  0.88840466  0.65420021     0.13400
H861        H  0.94829050  0.91591255  0.70427272     0.09900
H862        H  0.95109551  0.95718625  0.74358398     0.12000
H863        H  0.53591800  0.97804261  0.70402162     0.08600
H864        H  0.53219544  0.93747454  0.66326902     0.11400
C865        C  0.99507110  0.68124649  0.57201559    -0.03200
C866        C  0.96831995  0.67226628  0.58537177    -0.05800
C867        C  0.96657423  0.64865103  0.60828866    -0.20900
C868        C  0.99145888  0.63339951  0.61845501     0.24800
C869        C  0.51816689  0.64217362  0.60462340    -0.18500
C870        C  0.51992694  0.66588646  0.58186490    -0.08500
C871        C  0.98819475  0.60803836  0.64251075    -0.18700
C872        C  0.51028494  0.59500210  0.65904505    -0.23500
C873        C  0.50736272  0.56991185  0.68349875     0.26900
C874        C  0.53156857  0.56192407  0.70306452    -0.20300
C875        C  0.53042205  0.53856581  0.72626200    -0.09900
C876        C  0.00469606  0.52254245  0.73127639    -0.10500
C877        C  0.98090330  0.52972297  0.71006805    -0.03400
C878        C  0.98206203  0.55319964  0.68688110    -0.18500
H879        H  0.94866768  0.68336353  0.57793486     0.10600
H880        H  0.94560997  0.64222156  0.61805574     0.10600
H881        H  0.53786791  0.63066763  0.61053620     0.10300
H882        H  0.54081287  0.67189484  0.57151859     0.11400
H883        H  0.96637888  0.60065466  0.64747441     0.11500
H884        H  0.53187732  0.60359420  0.65569383     0.13400
H885        H  0.55173181  0.57369151  0.70018017     0.09900
H886        H  0.55023172  0.53282144  0.73925867     0.12000
H887        H  0.96118414  0.51704667  0.71164164     0.08600
H888        H  0.96316534  0.55758275  0.67138972     0.11400
loop_ 
_geom_bond_atom_site_label_1 
_geom_bond_atom_site_label_2 
_geom_bond_distance 
_geom_bond_site_symmetry_2 
_ccdc_geom_bond_type 
O1            V9   1.904       .  S
O1          C455   1.266       .  A
O2            V9   1.899       .  S
O2           C12   1.264       .  A
O3            V9   1.903       .  S
O3           C13   1.265       .  A
O4            V9   1.905       .  S
O4          C458   1.266       .  A
O5           V10   1.900       .  S
O5           C14   1.265       .  A
O6           V10   1.897       .  S
O6          C457   1.264   1_455  A
O7           V10   1.900       .  S
O7          C456   1.265       .  A
O8           V10   1.901       .  S
O8           C11   1.265   1_455  A
V9          V454   2.086       .  T
V10         V453   2.086   1_455  T
C11         O445   1.266       .  A
C11         C643   1.484       .  S
C12         O451   1.265       .  A
C12         C127   1.480       .  S
C13         O450   1.264       .  A
C13         C162   1.476       .  S
C14         O448   1.266   1_455  A
C14         C619   1.484       .  S
C15         C103   1.553       .  S
C15         C138   1.552       .  S
C15         C534   1.551       .  S
C15         C373   1.554       .  S
C16          C55   1.554       .  S
C16         C186   1.556       .  S
C16         C475   1.553       .  S
C16         C432   1.554       .  S
O17          V25   1.898   1_556  S
O17          C27   1.264       .  A
O18          V25   1.898       .  S
O18          C28   1.265       .  A
O19          V25   1.906       .  S
O19          C29   1.266       .  A
O20          V25   1.905   1_556  S
O20          C30   1.266       .  A
O21          V26   1.897   1_556  S
O21         C252   1.264       .  A
O22          V26   1.895       .  S
O22         C251   1.264       .  A
O23          V26   1.901       .  S
O23         C250   1.265       .  A
O24          V26   1.904   1_556  S
O24         C249   1.266       .  A
V25         V248   2.086   1_545  T
V26         V247   2.086       .  T
C27         O246   1.266   1_545  A
C27          C66   1.482       .  S
C28         O245   1.266   1_545  A
C28          C79   1.481       .  S
C29         O244   1.264   1_545  A
C29         C114   1.480       .  S
C30         O243   1.264   1_545  A
C30          C42   1.481       .  S
C31         C460   1.553       .  S
C31          C32   1.413       .  A
C31          C36   1.414       .  A
C32          C33   1.399       .  A
C32          H45   1.080       .  S
C33          C34   1.402       .  A
C33          H46   1.084       .  S
C34          C35   1.405       .  A
C34          C37   1.488       .  S
C35          C36   1.398       .  A
C35          H47   1.082       .  S
C36         H270   1.083       .  S
C37          C38   1.350       .  D
C37          H49   1.082       .  S
C38          C39   1.494       .  S
C38          H50   1.085       .  S
C39          C40   1.406       .  A
C39          C44   1.410       .  A
C40          C41   1.399       .  A
C40          H51   1.083       .  S
C41         C264   1.404       .  A
C41         H274   1.083       .  S
C42         C263   1.404       .  A
C42         C265   1.405   1_545  A
C43          C44   1.398       .  A
C43         C264   1.405       .  A
C43          H53   1.083       .  S
C44          H54   1.079       .  S
H48         C258   1.083       .  S
H52         C263   1.083       .  S
C55          C56   1.412       .  A
C55          C60   1.414       .  A
C56          C57   1.396       .  A
C56          H69   1.083       .  S
C57          C58   1.402       .  A
C57          H70   1.083       .  S
C58          C59   1.408       .  A
C58          C61   1.493       .  S
C59          C60   1.401       .  A
C59          H71   1.080       .  S
C60         H294   1.080       .  S
C61          C62   1.350       .  D
C61          H73   1.085       .  S
C62          C63   1.490       .  S
C62          H74   1.083       .  S
C63          C64   1.404       .  A
C63          C68   1.408       .  A
C64          C65   1.399       .  A
C64          H75   1.083       .  S
C65         C288   1.406       .  A
C65         H298   1.083       .  S
C66         C287   1.406       .  A
C66         C289   1.405   1_545  A
C67          C68   1.400       .  A
C67         C288   1.405       .  A
C67          H77   1.083       .  S
C68          H78   1.081       .  S
H72         C282   1.079       .  S
H76         C287   1.083       .  S
C79          C80   1.405       .  A
C79         C306   1.405   1_545  A
C80         C303   1.398       .  A
C80          H93   1.083       .  S
C81          C82   1.403       .  A
C81         C302   1.397       .  A
C81          H94   1.083       .  S
C82          C83   1.409       .  A
C82          C85   1.487       .  S
C83          C84   1.398       .  A
C83          H95   1.081       .  S
C84         C301   1.405       .  A
C84          H96   1.083       .  S
C85          C86   1.347       .  D
C85          H97   1.085       .  S
C86          C87   1.486       .  S
C86          H98   1.084       .  S
C87          C88   1.400       .  A
C87          C92   1.407       .  A
C88          C89   1.394       .  A
C88          H99   1.083       .  S
C89          C90   1.413       .  A
C89         H100   1.083       .  S
C90         C459   1.551   1_455  S
C90          C91   1.413       .  A
C91          C92   1.399       .  A
C91         H323   1.080       .  S
C92         H102   1.081       .  S
H101        C313   1.079       .  S
C103        C326   1.415       .  A
C103        C330   1.413       .  A
C104        C105   1.395       .  A
C104        C325   1.416   1_545  A
C104        H117   1.080       .  S
C105        C106   1.398       .  A
C105        H118   1.083       .  S
C106        C107   1.405       .  A
C106        C109   1.485       .  S
C107        C108   1.402   1_545  A
C107        H119   1.082       .  S
C108        C325   1.414       .  A
C108        H342   1.083       .  S
C109        C110   1.346       .  D
C109        H121   1.086       .  S
C110        C111   1.487       .  S
C110        H122   1.086   1_545  S
C111        C112   1.402   1_545  A
C111        C116   1.409       .  A
C112        C113   1.398       .  A
C112        H123   1.083       .  S
C113        C114   1.405   1_565  A
C113        H346   1.083       .  S
C114        C115   1.405       .  A
C115        C116   1.401       .  A
C115        H125   1.083       .  S
C116        H126   1.082       .  S
H120        C330   1.083       .  S
H124        C335   1.083       .  S
C127        C132   1.405       .  A
C127        C572   1.403       .  A
C128        C129   1.396       .  A
C128        C571   1.403       .  A
C128        H141   1.083       .  S
C129        C130   1.404       .  A
C129        H142   1.084       .  S
C130        C575   1.409   1_455  A
C130        C133   1.489       .  S
C131        C132   1.399       .  A
C131        C574   1.409       .  A
C131        H143   1.080       .  S
C132        H144   1.083       .  S
C133        C578   1.349   1_455  D
C133        H145   1.083       .  S
C134        C135   1.490       .  S
C134        C577   1.349       .  D
C134        H146   1.084       .  S
C135        C136   1.404       .  A
C135        C584   1.406       .  A
C136        C137   1.400       .  A
C136        H147   1.083       .  S
C137        C138   1.413       .  A
C137        H148   1.079       .  S
C138        C583   1.412       .  A
C139        C140   1.393       .  A
C139        C582   1.412   1_455  A
C139        H149   1.083       .  S
C140        C579   1.406   1_455  A
C140        H150   1.080       .  S
C151        C237   1.555   1_545  S
C151        C156   1.414       .  A
C151        C596   1.416       .  A
C152        C595   1.416       .  A
C152        C597   1.394       .  A
C152        H165   1.079   1_545  S
C153        C154   1.398       .  A
C153        C596   1.394       .  A
C153        H166   1.084       .  S
C154        C155   1.404       .  A
C154        C157   1.482       .  S
C155        C156   1.400       .  A
C155        H167   1.082       .  S
C156        H168   1.083       .  S
C157        C158   1.344       .  D
C157        H169   1.087       .  S
C158        C159   1.482       .  S
C158        H170   1.086       .  S
C159        C160   1.402       .  A
C159        C164   1.406       .  A
C160        C161   1.399       .  A
C160        H171   1.083       .  S
C161        C162   1.405       .  A
C161        H172   1.083       .  S
C162        C163   1.404       .  A
C163        C164   1.398       .  A
C163        H617   1.083       .  S
C164        H174   1.083       .  S
H173        C607   1.083       .  S
C175        C458   1.484       .  S
C175        C180   1.405       .  A
C175        C620   1.405       .  A
C176        C177   1.399       .  A
C176        C619   1.406       .  A
C176        H189   1.083       .  S
C177        C178   1.404       .  A
C177        H190   1.083       .  S
C178        C623   1.410   1_455  A
C178        C181   1.493       .  S
C179        C180   1.400       .  A
C179        C622   1.410       .  A
C179        H191   1.080       .  S
C180        H192   1.083       .  S
C181        C626   1.350   1_455  D
C181        H193   1.084       .  S
C182        C183   1.493       .  S
C182        C625   1.350       .  D
C182        H194   1.084       .  S
C183        C184   1.402       .  A
C183        C632   1.407       .  A
C184        C185   1.397       .  A
C184        H195   1.083       .  S
C185        C186   1.414       .  A
C185        H196   1.079       .  S
C186        C631   1.414       .  A
C187        C188   1.400       .  A
C187        C630   1.414       .  A
C187        H197   1.083       .  S
C188        C627   1.407   1_455  A
C188        H198   1.080       .  S
C199        C455   1.484       .  S
C199        C200   1.405       .  A
C199        C648   1.405       .  A
C200        C201   1.400       .  A
C200        H213   1.083       .  S
C201        C202   1.405       .  A
C201        H214   1.083       .  S
C202        C647   1.410       .  A
C202        C205   1.494       .  S
C203        C204   1.399       .  A
C203        C646   1.410   1_455  A
C203        H215   1.080       .  S
C204        C643   1.405   1_455  A
C204        H216   1.083       .  S
C205        C650   1.350       .  D
C205        H217   1.084       .  S
C206        C207   1.492       .  S
C206        C649   1.350   1_455  D
C206        H218   1.083       .  S
C207        C208   1.401       .  A
C207        C656   1.408   1_455  A
C208        C209   1.395       .  A
C208        H219   1.084       .  S
C209        C654   1.414       .  A
C209        H220   1.079       .  S
C210        C238   1.556   1_545  S
C210        C211   1.414       .  A
C210        C653   1.414       .  A
C211        C212   1.401       .  A
C211        H221   1.083       .  S
C212        C651   1.408       .  A
C212        H222   1.080       .  S
O223        V231   1.904       .  S
O223        C677   1.266       .  A
O224        V231   1.900       .  S
O224        C234   1.265       .  A
O225        V231   1.900       .  S
O225        C235   1.265       .  A
O226        V231   1.901       .  S
O226        C680   1.265       .  A
O227        V232   1.901       .  S
O227        C236   1.265       .  A
O228        V232   1.898       .  S
O228        C679   1.264   1_455  A
O229        V232   1.901       .  S
O229        C678   1.265       .  A
O230        V232   1.900       .  S
O230        C233   1.265   1_455  A
V231        V676   2.086       .  T
V232        V675   2.086   1_455  T
C233        O667   1.266       .  A
C233        C865   1.483       .  S
C234        O673   1.265       .  A
C234        C349   1.480       .  S
C235        O672   1.264       .  A
C235        C384   1.477       .  S
C236        O670   1.265   1_455  A
C236        C841   1.481       .  S
C237        C756   1.553       .  S
C237        C325   1.554       .  S
C237        C360   1.553       .  S
C238        C697   1.553       .  S
C238        C277   1.554       .  S
C238        C408   1.553       .  S
O239        V247   1.900   1_556  S
O239        C249   1.265       .  A
O240        V247   1.897       .  S
O240        C250   1.264       .  A
O241        V247   1.903       .  S
O241        C251   1.266       .  A
O242        V247   1.903   1_556  S
O242        C252   1.266       .  A
O243        V248   1.897   1_556  S
O244        V248   1.896       .  S
O245        V248   1.903       .  S
O246        V248   1.905   1_556  S
C249        C288   1.483       .  S
C250        C301   1.479       .  S
C251        C336   1.477       .  S
C252        C264   1.481       .  S
C253        C682   1.553   1_455  S
C253        C254   1.414       .  A
C253        C258   1.413   1_565  A
C254        C255   1.398       .  A
C254        H267   1.079       .  S
C255        C256   1.402       .  A
C255        H268   1.084       .  S
C256        C257   1.405   1_565  A
C256        C259   1.488       .  S
C257        C258   1.396       .  A
C257        H269   1.081       .  S
C259        C260   1.349   1_565  D
C259        H271   1.083       .  S
C260        C261   1.491       .  S
C260        H272   1.085       .  S
C261        C262   1.405       .  A
C261        C266   1.409   1_545  A
C262        C263   1.398       .  A
C262        H273   1.083       .  S
C265        C266   1.399       .  A
C265        H275   1.083       .  S
C266        H276   1.079       .  S
C277        C278   1.413       .  A
C277        C282   1.413   1_565  A
C278        C279   1.395       .  A
C278        H291   1.083       .  S
C279        C280   1.402   1_565  A
C279        H292   1.083       .  S
C280        C281   1.408       .  A
C280        C283   1.493   1_545  S
C281        C282   1.400       .  A
C281        H293   1.079       .  S
C283        C284   1.348   1_565  D
C283        H295   1.086       .  S
C284        C285   1.487       .  S
C284        H296   1.082       .  S
C285        C286   1.402       .  A
C285        C290   1.408   1_545  A
C286        C287   1.398       .  A
C286        H297   1.083       .  S
C289        C290   1.400       .  A
C289        H299   1.083       .  S
C290        H300   1.082       .  S
C301        C302   1.405       .  A
C302        H315   1.083       .  S
C303        C304   1.404       .  A
C303        H316   1.083       .  S
C304        C305   1.409   1_545  A
C304        C307   1.490       .  S
C305        C306   1.400       .  A
C305        H317   1.081       .  S
C306        H318   1.083       .  S
C307        C308   1.348   1_545  D
C307        H319   1.085       .  S
C308        C309   1.489       .  S
C308        H320   1.085       .  S
C309        C310   1.400       .  A
C309        C314   1.407   1_565  A
C310        C311   1.395       .  A
C310        H321   1.083       .  S
C311        C312   1.413       .  A
C311        H322   1.083       .  S
C312        C681   1.553   1_455  S
C312        C313   1.413   1_565  A
C313        C314   1.401       .  A
C314        H324   1.081       .  S
C326        C327   1.393       .  A
C326        H339   1.080       .  S
C327        C328   1.398       .  A
C327        H340   1.084       .  S
C328        C329   1.404       .  A
C328        C331   1.481       .  S
C329        C330   1.400       .  A
C329        H341   1.082       .  S
C331        C332   1.345       .  D
C331        H343   1.086       .  S
C332        C333   1.484       .  S
C332        H344   1.086       .  S
C333        C334   1.402       .  A
C333        C338   1.408       .  A
C334        C335   1.397       .  A
C334        H345   1.083       .  S
C335        C336   1.406       .  A
C336        C337   1.404       .  A
C337        C338   1.398       .  A
C337        H347   1.083       .  S
C338        H348   1.082       .  S
C349        C794   1.404       .  A
C349        C354   1.406       .  A
C350        C793   1.404       .  A
C350        C351   1.397       .  A
C350        H363   1.083       .  S
C351        C352   1.404       .  A
C351        H364   1.084       .  S
C352        C797   1.408   1_455  A
C352        C355   1.487       .  S
C353        C796   1.408       .  A
C353        C354   1.399       .  A
C353        H365   1.081       .  S
C354        H366   1.083       .  S
C355        C800   1.348   1_455  D
C355        H367   1.085       .  S
C356        C357   1.489       .  S
C356        C799   1.348       .  D
C356        H368   1.085       .  S
C357        C358   1.403       .  A
C357        C806   1.405       .  A
C358        C359   1.401       .  A
C358        H369   1.083       .  S
C359        C360   1.413       .  A
C359        H370   1.079       .  S
C360        C805   1.413       .  A
C361        C804   1.413   1_455  A
C361        C362   1.393       .  A
C361        H371   1.083       .  S
C362        C801   1.405   1_455  A
C362        H372   1.081       .  S
C373        C818   1.416       .  A
C373        C378   1.414       .  A
C374        C817   1.416   1_655  A
C374        C819   1.395       .  A
C374        H387   1.079       .  S
C375        C818   1.395       .  A
C375        C376   1.397       .  A
C375        H388   1.084       .  S
C376        C377   1.403       .  A
C376        C379   1.479       .  S
C377        C378   1.399       .  A
C377        H389   1.083       .  S
C378        H390   1.083       .  S
C379        C380   1.343       .  D
C379        H391   1.087       .  S
C380        C381   1.481       .  S
C380        H392   1.087       .  S
C381        C382   1.402       .  A
C381        C386   1.406       .  A
C382        C383   1.398       .  A
C382        H393   1.083       .  S
C383        C384   1.405       .  A
C383        H394   1.083       .  S
C384        C385   1.405       .  A
C385        C386   1.398       .  A
C385        H839   1.083       .  S
C386        H396   1.083       .  S
H395        C829   1.083       .  S
C397        C680   1.481       .  S
C397        C842   1.405       .  A
C397        C402   1.405       .  A
C398        C841   1.404       .  A
C398        C399   1.398       .  A
C398        H411   1.083       .  S
C399        C400   1.405       .  A
C399        H412   1.083       .  S
C400        C845   1.410   1_455  A
C400        C403   1.491       .  S
C401        C844   1.410       .  A
C401        C402   1.399       .  A
C401        H413   1.080       .  S
C402        H414   1.083       .  S
C403        C848   1.349   1_455  D
C403        H415   1.085       .  S
C404        C405   1.489       .  S
C404        C847   1.349       .  D
C404        H416   1.083       .  S
C405        C406   1.401       .  A
C405        C854   1.406       .  A
C406        C407   1.397       .  A
C406        H417   1.083       .  S
C407        C408   1.414       .  A
C407        H418   1.079       .  S
C408        C853   1.413       .  A
C409        C852   1.413   1_455  A
C409        C410   1.397       .  A
C409        H419   1.083       .  S
C410        C849   1.406   1_455  A
C410        H420   1.081       .  S
C421        C677   1.483       .  S
C421        C422   1.405       .  A
C421        C870   1.405       .  A
C422        C423   1.400       .  A
C422        H435   1.083       .  S
C423        C424   1.406       .  A
C423        H436   1.083       .  S
C424        C869   1.410       .  A
C424        C427   1.495       .  S
C425        C868   1.410   1_455  A
C425        C426   1.399       .  A
C425        H437   1.080       .  S
C426        C865   1.405   1_455  A
C426        H438   1.083       .  S
C427        C872   1.350       .  D
C427        H439   1.083       .  S
C428        C429   1.493       .  S
C428        C871   1.350   1_455  D
C428        H440   1.083       .  S
C429        C430   1.402       .  A
C429        C878   1.408   1_455  A
C430        C431   1.396       .  A
C430        H441   1.084       .  S
C431        C876   1.414       .  A
C431        H442   1.080       .  S
C432        C875   1.414       .  A
C432        C433   1.413       .  A
C433        C434   1.400       .  A
C433        H443   1.083       .  S
C434        C873   1.408       .  A
C434        H444   1.080       .  S
O445        V453   1.904       .  S
O446        V453   1.899       .  S
O446        C456   1.264   1_655  A
O447        V453   1.903       .  S
O447        C457   1.265       .  A
O448        V453   1.905       .  S
O449        V454   1.900       .  S
O449        C458   1.265       .  A
O450        V454   1.897       .  S
O451        V454   1.900       .  S
O452        V454   1.901       .  S
O452        C455   1.265       .  A
C456        C571   1.480       .  S
C457        C606   1.476       .  S
C459        C547   1.553       .  S
C459        C582   1.552       .  S
C459        C817   1.554   1_655  S
C460        C499   1.554   1_455  S
C460        C630   1.556       .  S
C460        C876   1.554       .  S
O461        V469   1.898   1_556  S
O461        C471   1.264       .  A
O462        V469   1.898       .  S
O462        C472   1.265       .  A
O463        V469   1.907       .  S
O463        C473   1.266       .  A
O464        V469   1.905   1_556  S
O464        C474   1.266       .  A
O465        V470   1.897   1_556  S
O465        C696   1.264       .  A
O466        V470   1.896       .  S
O466        C695   1.264       .  A
O467        V470   1.901       .  S
O467        C694   1.265       .  A
O468        V470   1.904   1_556  S
O468        C693   1.266       .  A
V469        V692   2.086   1_545  T
V470        V691   2.086       .  T
C471        O690   1.266   1_545  A
C471        C510   1.482       .  S
C472        O689   1.266   1_545  A
C472        C523   1.481       .  S
C473        O688   1.264   1_545  A
C473        C558   1.480       .  S
C474        O687   1.264   1_545  A
C474        C486   1.481       .  S
C475        C476   1.413       .  A
C475        C480   1.414       .  A
C476        C477   1.399       .  A
C476        H489   1.080       .  S
C477        C478   1.402       .  A
C477        H490   1.084       .  S
C478        C479   1.405       .  A
C478        C481   1.488       .  S
C479        C480   1.398       .  A
C479        H491   1.082       .  S
C480        H714   1.083       .  S
C481        C482   1.350       .  D
C481        H493   1.082       .  S
C482        C483   1.494       .  S
C482        H494   1.085       .  S
C483        C484   1.406       .  A
C483        C488   1.410       .  A
C484        C485   1.399       .  A
C484        H495   1.083       .  S
C485        C708   1.404       .  A
C485        H718   1.083       .  S
C486        C707   1.404       .  A
C486        C709   1.405   1_545  A
C487        C708   1.405       .  A
C487        C488   1.398       .  A
C487        H497   1.083       .  S
C488        H498   1.079       .  S
H492        C702   1.083       .  S
H496        C707   1.083       .  S
C499        C500   1.412       .  A
C499        C504   1.414       .  A
C500        C501   1.396       .  A
C500        H513   1.083       .  S
C501        C502   1.402       .  A
C501        H514   1.083       .  S
C502        C503   1.408       .  A
C502        C505   1.494       .  S
C503        C504   1.401       .  A
C503        H515   1.080       .  S
C504        H738   1.080       .  S
C505        C506   1.350       .  D
C505        H517   1.085       .  S
C506        C507   1.490       .  S
C506        H518   1.083       .  S
C507        C508   1.404       .  A
C507        C512   1.409       .  A
C508        C509   1.399       .  A
C508        H519   1.083       .  S
C509        C732   1.406       .  A
C509        H742   1.083       .  S
C510        C731   1.406       .  A
C510        C733   1.405   1_545  A
C511        C732   1.405       .  A
C511        C512   1.400       .  A
C511        H521   1.083       .  S
C512        H522   1.081       .  S
H516        C726   1.079       .  S
H520        C731   1.083       .  S
C523        C524   1.405       .  A
C523        C750   1.405   1_545  A
C524        C747   1.398       .  A
C524        H537   1.083       .  S
C525        C746   1.397       .  A
C525        C526   1.403       .  A
C525        H538   1.083       .  S
C526        C527   1.409       .  A
C526        C529   1.487       .  S
C527        C528   1.399       .  A
C527        H539   1.081       .  S
C528        C745   1.405       .  A
C528        H540   1.083       .  S
C529        C530   1.347       .  D
C529        H541   1.085       .  S
C530        C531   1.486       .  S
C530        H542   1.084       .  S
C531        C532   1.400       .  A
C531        C536   1.407       .  A
C532        C533   1.394       .  A
C532        H543   1.083       .  S
C533        C534   1.413       .  A
C533        H544   1.083       .  S
C534        C535   1.413       .  A
C535        C536   1.399       .  A
C535        H767   1.080       .  S
C536        H546   1.081       .  S
H545        C757   1.079       .  S
C547        C770   1.415       .  A
C547        C774   1.413       .  A
C548        C769   1.416   1_545  A
C548        C549   1.395       .  A
C548        H561   1.080       .  S
C549        C550   1.399       .  A
C549        H562   1.083       .  S
C550        C551   1.405       .  A
C550        C553   1.485       .  S
C551        C552   1.401   1_545  A
C551        H563   1.082       .  S
C552        C769   1.414       .  A
C552        H786   1.083       .  S
C553        C554   1.346       .  D
C553        H565   1.086       .  S
C554        C555   1.487       .  S
C554        H566   1.086   1_545  S
C555        C556   1.402   1_545  A
C555        C560   1.408       .  A
C556        C557   1.397       .  A
C556        H567   1.083       .  S
C557        C558   1.405   1_565  A
C557        H790   1.083       .  S
C558        C559   1.405       .  A
C559        C560   1.401       .  A
C559        H569   1.083       .  S
C560        H570   1.082       .  S
H564        C774   1.083       .  S
H568        C779   1.083       .  S
C571        C576   1.405   1_455  A
C572        C573   1.396       .  A
C572        H585   1.083       .  S
C573        C574   1.404       .  A
C573        H586   1.084       .  S
C574        C577   1.489       .  S
C575        C576   1.399       .  A
C575        H587   1.080       .  S
C576        H588   1.083       .  S
C577        H589   1.083       .  S
C578        C579   1.490       .  S
C578        H590   1.084       .  S
C579        C580   1.404       .  A
C580        C581   1.400       .  A
C580        H591   1.083       .  S
C581        C582   1.413       .  A
C581        H592   1.079       .  S
C583        C584   1.393       .  A
C583        H593   1.083       .  S
C584        H594   1.080       .  S
C595        C681   1.555   1_545  S
C595        C600   1.414       .  A
C596        H609   1.079   1_545  S
C597        C598   1.398       .  A
C597        H610   1.084       .  S
C598        C599   1.404       .  A
C598        C601   1.482       .  S
C599        C600   1.400       .  A
C599        H611   1.082   1_655  S
C600        H612   1.083   1_655  S
C601        C602   1.344       .  D
C601        H613   1.087   1_655  S
C602        C603   1.482       .  S
C602        H614   1.086       .  S
C603        C604   1.402       .  A
C603        C608   1.406   1_655  A
C604        C605   1.399       .  A
C604        H615   1.083       .  S
C605        C606   1.405       .  A
C605        H616   1.083       .  S
C606        C607   1.404   1_655  A
C607        C608   1.398       .  A
C608        H618   1.083       .  S
C619        C624   1.405   1_455  A
C620        C621   1.399       .  A
C620        H633   1.083       .  S
C621        C622   1.405       .  A
C621        H634   1.083       .  S
C622        C625   1.493       .  S
C623        C624   1.401       .  A
C623        H635   1.080       .  S
C624        H636   1.083       .  S
C625        H637   1.084       .  S
C626        C627   1.493       .  S
C626        H638   1.084       .  S
C627        C628   1.402       .  A
C628        C629   1.397       .  A
C628        H639   1.083       .  S
C629        C630   1.413   1_655  A
C629        H640   1.079       .  S
C631        C632   1.400       .  A
C631        H641   1.083       .  S
C632        H642   1.080       .  S
C643        C644   1.405       .  A
C644        C645   1.400       .  A
C644        H657   1.083       .  S
C645        C646   1.405       .  A
C645        H658   1.083       .  S
C646        C649   1.495       .  S
C647        C648   1.399       .  A
C647        H659   1.080       .  S
C648        H660   1.083       .  S
C649        H661   1.084       .  S
C650        C651   1.492       .  S
C650        H662   1.083       .  S
C651        C652   1.401       .  A
C652        C653   1.395       .  A
C652        H663   1.084       .  S
C653        H664   1.079       .  S
C654        C682   1.556   1_445  S
C654        C655   1.414   1_455  A
C655        C656   1.401       .  A
C655        H665   1.083       .  S
C656        H666   1.080       .  S
O667        V675   1.903       .  S
O668        V675   1.900       .  S
O668        C678   1.265   1_655  A
O669        V675   1.900       .  S
O669        C679   1.265       .  A
O670        V675   1.901       .  S
O671        V676   1.901       .  S
O671        C680   1.265       .  A
O672        V676   1.898       .  S
O673        V676   1.901       .  S
O674        V676   1.901       .  S
O674        C677   1.265       .  A
C678        C793   1.480       .  S
C679        C828   1.477       .  S
C681        C769   1.554       .  S
C681        C804   1.553       .  S
C682        C721   1.554       .  S
C682        C852   1.553       .  S
O683        V691   1.900   1_556  S
O683        C693   1.265       .  A
O684        V691   1.897       .  S
O684        C694   1.264       .  A
O685        V691   1.902       .  S
O685        C695   1.265       .  A
O686        V691   1.903   1_556  S
O686        C696   1.266       .  A
O687        V692   1.897   1_556  S
O688        V692   1.896       .  S
O689        V692   1.903       .  S
O690        V692   1.905   1_556  S
C693        C732   1.483       .  S
C694        C745   1.479       .  S
C695        C780   1.477       .  S
C696        C708   1.481       .  S
C697        C698   1.414       .  A
C697        C702   1.413   1_565  A
C698        C699   1.398       .  A
C698        H711   1.079       .  S
C699        C700   1.402       .  A
C699        H712   1.084       .  S
C700        C701   1.405   1_565  A
C700        C703   1.488       .  S
C701        C702   1.396       .  A
C701        H713   1.081       .  S
C703        C704   1.349   1_565  D
C703        H715   1.083       .  S
C704        C705   1.491       .  S
C704        H716   1.085       .  S
C705        C706   1.405       .  A
C705        C710   1.409   1_545  A
C706        C707   1.398       .  A
C706        H717   1.083       .  S
C709        C710   1.399       .  A
C709        H719   1.083       .  S
C710        H720   1.079       .  S
C721        C722   1.413       .  A
C721        C726   1.413   1_565  A
C722        C723   1.395       .  A
C722        H735   1.083       .  S
C723        C724   1.402   1_565  A
C723        H736   1.083       .  S
C724        C725   1.408       .  A
C724        C727   1.493   1_545  S
C725        C726   1.400       .  A
C725        H737   1.079       .  S
C727        C728   1.349   1_565  D
C727        H739   1.086       .  S
C728        C729   1.487       .  S
C728        H740   1.082       .  S
C729        C730   1.403       .  A
C729        C734   1.408   1_545  A
C730        C731   1.398       .  A
C730        H741   1.083       .  S
C733        C734   1.400       .  A
C733        H743   1.083       .  S
C734        H744   1.082       .  S
C745        C746   1.405       .  A
C746        H759   1.083       .  S
C747        C748   1.404       .  A
C747        H760   1.083       .  S
C748        C749   1.409   1_545  A
C748        C751   1.489       .  S
C749        C750   1.400       .  A
C749        H761   1.081       .  S
C750        H762   1.083       .  S
C751        C752   1.348   1_545  D
C751        H763   1.085       .  S
C752        C753   1.489       .  S
C752        H764   1.085       .  S
C753        C754   1.400       .  A
C753        C758   1.407   1_565  A
C754        C755   1.395       .  A
C754        H765   1.083       .  S
C755        C756   1.413       .  A
C755        H766   1.083       .  S
C756        C757   1.413   1_565  A
C757        C758   1.401       .  A
C758        H768   1.081       .  S
C770        C771   1.393       .  A
C770        H783   1.080       .  S
C771        C772   1.398       .  A
C771        H784   1.084       .  S
C772        C773   1.404       .  A
C772        C775   1.481       .  S
C773        C774   1.400       .  A
C773        H785   1.082       .  S
C775        C776   1.345       .  D
C775        H787   1.086       .  S
C776        C777   1.484       .  S
C776        H788   1.086       .  S
C777        C778   1.402       .  A
C777        C782   1.408       .  A
C778        C779   1.397       .  A
C778        H789   1.083       .  S
C779        C780   1.406       .  A
C780        C781   1.404       .  A
C781        C782   1.398       .  A
C781        H791   1.083       .  S
C782        H792   1.082       .  S
C793        C798   1.406   1_455  A
C794        C795   1.397       .  A
C794        H807   1.083       .  S
C795        C796   1.404       .  A
C795        H808   1.084       .  S
C796        C799   1.487       .  S
C797        C798   1.399       .  A
C797        H809   1.081       .  S
C798        H810   1.083       .  S
C799        H811   1.085       .  S
C800        C801   1.489       .  S
C800        H812   1.085       .  S
C801        C802   1.403       .  A
C802        C803   1.401       .  A
C802        H813   1.083       .  S
C803        C804   1.413       .  A
C803        H814   1.079       .  S
C805        C806   1.394       .  A
C805        H815   1.083       .  S
C806        H816   1.081       .  S
C817        C822   1.414       .  A
C818        H831   1.079       .  S
C819        C820   1.397   1_655  A
C819        H832   1.084       .  S
C820        C821   1.403       .  A
C820        C823   1.479       .  S
C821        C822   1.399       .  A
C821        H833   1.083       .  S
C822        H834   1.083       .  S
C823        C824   1.343   1_455  D
C823        H835   1.087       .  S
C824        C825   1.481       .  S
C824        H836   1.087       .  S
C825        C826   1.402       .  A
C825        C830   1.406   1_655  A
C826        C827   1.398       .  A
C826        H837   1.083       .  S
C827        C828   1.405       .  A
C827        H838   1.083       .  S
C828        C829   1.405   1_655  A
C829        C830   1.398       .  A
C830        H840   1.083       .  S
C841        C846   1.405   1_455  A
C842        C843   1.398       .  A
C842        H855   1.083       .  S
C843        C844   1.405       .  A
C843        H856   1.083       .  S
C844        C847   1.491       .  S
C845        C846   1.399       .  A
C845        H857   1.080       .  S
C846        H858   1.083       .  S
C847        H859   1.085       .  S
C848        C849   1.489       .  S
C848        H860   1.083       .  S
C849        C850   1.401       .  A
C850        C851   1.397       .  A
C850        H861   1.083       .  S
C851        C852   1.414       .  A
C851        H862   1.079       .  S
C853        C854   1.397       .  A
C853        H863   1.083       .  S
C854        H864   1.081       .  S
C865        C866   1.405       .  A
C866        C867   1.400       .  A
C866        H879   1.083       .  S
C867        C868   1.406       .  A
C867        H880   1.083       .  S
C868        C871   1.495       .  S
C869        C870   1.399       .  A
C869        H881   1.080       .  S
C870        H882   1.083       .  S
C871        H883   1.083       .  S
C872        C873   1.493       .  S
C872        H884   1.083       .  S
C873        C874   1.402       .  A
C874        C875   1.396       .  A
C874        H885   1.084       .  S
C875        H886   1.080       .  S
C876        C877   1.413   1_455  A
C877        C878   1.400       .  A
C877        H887   1.083       .  S
C878        H888   1.080       .  S
