geometry optimzed in LAMMPS
_audit_creation_date              2020-11-30 
_audit_creation_method            'lammps2cif' 
_symmetry_space_group_name_H-M    'P1' 
_symmetry_Int_Tables_number       1 
_symmetry_cell_setting            triclinic 
loop_ 
_symmetry_equiv_pos_as_xyz 
  x,y,z 
_cell_length_a                    43.00693697 
_cell_length_b                    42.3608916716321 
_cell_length_c                    28.562693364806545 
_cell_angle_alpha                 89.24495131895087 
_cell_angle_beta                  89.59840960588873 
_cell_angle_gamma                 90.89114768190261 
loop_ 
_atom_site_label 
_atom_site_type_symbol 
_atom_site_fract_x 
_atom_site_fract_y 
_atom_site_fract_z 
_atom_site_charge 
O1          O  0.25540371  0.20147787  0.33420286    -0.86800
O2          O  0.24594773  0.19376707  0.60288074    -0.87000
O3          O  0.29706808  0.16270685  0.47921195    -0.88600
O4          O  0.19881742  0.16334345  0.46911145    -0.87400
O5          O  0.16131165  0.20084447  0.47271228    -0.87000
O6          O  0.33641323  0.19987452  0.47799850    -0.88400
O7          O  0.24395918  0.16050908  0.53995490    -0.86800
O8          O  0.25328484  0.16454087  0.39355553    -0.86400
Zr9        Zr  0.24886576  0.19007576  0.46812379     2.84300
O10         O  0.21806261  0.21982472  0.51768310    -1.08400
O11         O  0.28180899  0.22123670  0.42096852    -1.09100
C12         C  0.25539139  0.17234906  0.34991730     1.06300
C13         C  0.24370287  0.16581867  0.58413356     1.06200
C14         C  0.32568643  0.17143578  0.48309037     1.09200
C15         C  0.17032110  0.17188210  0.47299497     1.07000
H16         H  0.29146556  0.20558130  0.53903327     0.32600
O17         O  0.27931749  0.21939907  0.51953826    -1.29300
H18         H  0.20624486  0.20863453  0.39960523     0.32200
O19         O  0.21917945  0.22180962  0.41910336    -1.31000
O20         O  0.24847937  0.30331191  0.60729695    -0.86800
O21         O  0.25603100  0.30983652  0.33981094    -0.88300
O22         O  0.33696621  0.24958356  0.54726304    -0.86900
O23         O  0.16072228  0.25154740  0.54240030    -0.86900
O24         O  0.16433164  0.25457192  0.39328438    -0.86600
O25         O  0.33975280  0.25169945  0.39843349    -0.86400
O26         O  0.30095899  0.33898467  0.48702687    -0.86800
O27         O  0.20110511  0.33955714  0.47543713    -0.86300
O28         O  0.33848659  0.30144454  0.47986165    -0.87300
O29         O  0.16219908  0.30224650  0.47356945    -0.86500
O30         O  0.30126476  0.24799967  0.60737392    -0.86900
O31         O  0.30533231  0.25603345  0.33756985    -0.86600
O32         O  0.20067831  0.25507493  0.33388961    -0.86300
O33         O  0.19516574  0.24823359  0.60350111    -0.86700
O34         O  0.24957734  0.34065905  0.54831448    -0.87000
O35         O  0.25677758  0.34380002  0.40207771    -0.88300
Zr36       Zr  0.24868488  0.24940074  0.57028373     2.83100
Zr37       Zr  0.25231319  0.25459952  0.37229218     2.83500
Zr38       Zr  0.31175846  0.25110562  0.47226324     2.84100
Zr39       Zr  0.18851953  0.25199572  0.46902002     2.83400
Zr40       Zr  0.25109718  0.31389936  0.47396696     2.84200
O41         O  0.22051707  0.28483205  0.42216033    -1.08900
O42         O  0.28086394  0.28131682  0.52168022    -1.08400
C43         C  0.24881986  0.33262094  0.59200165     1.06300
C44         C  0.25819924  0.33787269  0.35804629     1.08900
C45         C  0.32970066  0.24824904  0.59106400     1.06400
C46         C  0.16728850  0.24985005  0.58624564     1.06800
C47         C  0.17221838  0.25514605  0.34967921     1.06400
C48         C  0.33321898  0.25393719  0.35451879     1.05900
C49         C  0.32923616  0.32956978  0.48828973     1.06400
C50         C  0.17220076  0.33100474  0.47653179     1.05900
H51         H  0.29702806  0.29842762  0.40743187     0.32600
O52         O  0.28283433  0.28452078  0.42452814    -1.30000
H53         H  0.20575492  0.29470084  0.53950093     0.32600
O54         O  0.21892918  0.28170237  0.52050282    -1.31400
N55         N  0.47985785  0.04494837  0.60677258    -0.36900
N56         N  0.44146835  0.49812915  0.64105257    -0.57500
N57         N  0.49020508  0.45143374  0.61874480    -0.36900
N58         N  0.02260305  0.49936710  0.55485815    -0.57500
C59         C  0.45718253  0.06005234  0.62968571     0.26700
C60         C  0.00799982  0.06465692  0.59071769     0.26700
C61         C  0.46808711  0.43393801  0.64080006     0.26700
C62         C  0.01608011  0.43575037  0.58831451     0.26700
C63         C  0.41749843  0.01825343  0.62971463     0.35300
C64         C  0.42449936  0.47146758  0.63422006     0.35300
C65         C  0.03512716  0.02649789  0.54150232     0.35300
C66         C  0.03459969  0.47515204  0.53107234     0.35300
C67         C  0.46752937  0.08988738  0.64201209    -0.22200
C68         C  0.00455740  0.09308426  0.61372278    -0.22200
C69         C  0.48017697  0.40488598  0.65333417    -0.22200
C70         C  0.01986614  0.40959708  0.61724559    -0.22200
C71         C  0.38858043  0.00585003  0.61839737    -0.23300
C72         C  0.39465033  0.47907166  0.62005544    -0.23300
C73         C  0.05086885  0.01757426  0.50132932    -0.23300
C74         C  0.04889163  0.48608426  0.49022009    -0.23300
C75         C  0.42593556  0.05040468  0.62785397    -0.18600
C76         C  0.03117728  0.05769235  0.55703032    -0.18600
C77         C  0.03460490  0.44405570  0.54904553    -0.18600
C78         C  0.43614095  0.44039067  0.63737315    -0.18600
H79         H  0.45401778  0.10817696  0.65821636     0.14300
H80         H  0.02010792  0.11340120  0.61255378     0.14300
H81         H  0.46748027  0.38486908  0.66809894     0.14300
H82         H  0.03845048  0.39268012  0.61611524     0.14300
H83         H  0.36806504  0.01849336  0.60782276     0.12600
H84         H  0.37586775  0.46345184  0.60991351     0.12600
H85         H  0.06055583  0.03280039  0.47403878     0.12600
H86         H  0.06097747  0.47241000  0.46426005     0.12600
H87         H  0.47646943  0.02472040  0.58699839     0.25800
H88         H  0.48547244  0.47138411  0.59873605     0.25800
O89         O  0.00750079  0.44477235  0.84399225    -0.86800
O90         O  0.00058405  0.44380681  0.11467732    -0.87000
O91         O  0.05781552  0.41355451  0.98448659    -0.88600
O92         O  0.46100936  0.41085017  0.99505172    -0.87400
O93         O  0.42161816  0.44673316  0.99327225    -0.87000
O94         O  0.09180653  0.45543131  0.99075665    -0.88400
O95         O  0.00638512  0.40842425  0.05508082    -0.86800
O96         O  0.01204372  0.40875224  0.90448953    -0.86400
Zr97       Zr  0.00669222  0.43517130  0.97896939     2.84300
O98         O  0.47560646  0.47007396  0.02757447    -1.08400
O99         O  0.03531021  0.46978694  0.93038995    -1.09100
C100        C  0.01141141  0.41612031  0.86053543     1.06300
C101        C  0.00354037  0.41545824  0.09879979     1.06200
C102        C  0.08496662  0.42558063  0.99141164     1.09200
C103        C  0.43272899  0.41932915  0.00203415     1.07000
H104        H  0.04746983  0.45691853  0.04858948     0.32600
O105        O  0.03382737  0.46887261  0.02864836    -1.29300
H106        H  0.46319399  0.45339522  0.91318168     0.32200
O107        O  0.47561895  0.46837091  0.93045489    -1.31000
O108        O  0.00585327  0.05325054  0.10328659    -0.86800
O109        O  0.00384621  0.05408256  0.83616418    -0.88300
O110        O  0.08716628  0.50679664  0.05385801    -0.86900
O111        O  0.41588025  0.49944371  0.05222162    -0.86900
O112        O  0.41800474  0.99056727  0.90326966    -0.86600
O113        O  0.09494341  0.00575172  0.89588658    -0.86400
O114        O  0.04773658  0.09457017  0.96830813    -0.86800
O115        O  0.44668913  0.08366827  0.98678830    -0.86300
O116        O  0.08749806  0.05937154  0.97471614    -0.87300
O117        O  0.41425884  0.04017356  0.98724183    -0.86500
O118        O  0.05214481  0.50158785  0.11433930    -0.86900
O119        O  0.05968840  0.00023843  0.83628082    -0.86600
O120        O  0.45321956  0.99813574  0.84307213    -0.86300
O121        O  0.45036352  0.50424617  0.11277461    -0.86700
O122        O  0.00152538  0.08968258  0.04338386    -0.87000
O123        O  0.99785161  0.08977964  0.89527195    -0.88300
Zr124      Zr  0.99989186  0.49654072  0.07741987     2.83100
Zr125      Zr  0.00599808  0.99937523  0.87209669     2.83500
Zr126      Zr  0.06734828  0.00560399  0.97012580     2.84100
Zr127      Zr  0.44513569  0.99360518  0.97750667     2.83400
Zr128      Zr  0.00115289  0.06235410  0.96912717     2.84200
O129        O  0.47152333  0.02956904  0.92760813    -1.08900
O130        O  0.03442823  0.03426217  0.01811662    -1.08400
C131        C  0.00382296  0.08187483  0.08705158     1.06300
C132        C  0.00054564  0.08280033  0.85176395     1.08900
C133        C  0.08021367  0.50554280  0.09759894     1.06400
C134        C  0.42224248  0.50211499  0.09608076     1.06800
C135        C  0.42513980  0.99347255  0.85936114     1.06400
C136        C  0.08804544  0.00295148  0.85221952     1.05900
C137        C  0.07634215  0.08747028  0.97442067     1.06400
C138        C  0.41994628  0.06980433  0.99285923     1.05900
H139        H  0.04699077  0.04833299  0.90151462     0.32600
O140        O  0.03458226  0.03392551  0.92062597    -1.30000
H141        H  0.45901778  0.04000129  0.04520863     0.32600
O142        O  0.47274846  0.02862553  0.02492892    -1.31400
N143        N  0.25774344  0.29878035  0.12993289    -0.36900
N144        N  0.20631192  0.25444663  0.12215668    -0.57500
N145        N  0.24765577  0.20057347  0.11758677    -0.36900
N146        N  0.29774777  0.24436663  0.12881886    -0.57500
C147        C  0.23487116  0.31788847  0.11488471     0.26700
C148        C  0.28503487  0.31179340  0.11485583     0.26700
C149        C  0.22157108  0.18964953  0.09718182     0.26700
C150        C  0.27161375  0.18472897  0.09855875     0.26700
C151        C  0.19036485  0.28115445  0.12929857     0.35300
C152        C  0.18512625  0.23062389  0.12272961     0.35300
C153        C  0.31854618  0.26744686  0.13745418     0.35300
C154        C  0.31306614  0.21704841  0.13270284     0.35300
C155        C  0.24783113  0.34409155  0.09206605    -0.22200
C156        C  0.27942341  0.34013670  0.09170132    -0.22200
C157        C  0.22879826  0.16598532  0.06596168    -0.22200
C158        C  0.26049967  0.16309967  0.06647259    -0.22200
C159        C  0.15904922  0.27408472  0.13629148    -0.23300
C160        C  0.15572110  0.24198206  0.13187245    -0.23300
C161        C  0.34685350  0.25472499  0.14991054    -0.23300
C162        C  0.34327313  0.22257983  0.14741141    -0.23300
C163        C  0.20259706  0.31162117  0.11940527    -0.18600
C164        C  0.31469402  0.29826294  0.12057193    -0.18600
C165        C  0.30321262  0.19002803  0.10893102    -0.18600
C166        C  0.19133940  0.20020204  0.10649060    -0.18600
H167        H  0.23582319  0.36344604  0.07544435     0.14300
H168        H  0.29608367  0.35604061  0.07491048     0.14300
H169        H  0.21296401  0.15280856  0.04401170     0.14300
H170        H  0.27374718  0.14731300  0.04488039     0.14300
H171        H  0.14029289  0.29057236  0.14057727     0.12600
H172        H  0.13393369  0.22884606  0.13188541     0.12600
H173        H  0.36861607  0.26732699  0.15482922     0.12600
H174        H  0.36171570  0.20557145  0.15025844     0.12600
H175        H  0.25487026  0.27854014  0.15072323     0.25800
H176        H  0.24864272  0.21656780  0.14500539     0.25800
C177        C  0.00300190  0.24527480  0.22971820    -0.02800
C178        C  0.25424939  0.00288209  0.21731904    -0.02800
C179        C  0.99872483  0.25219676  0.71314512    -0.02800
C180        C  0.25925151  0.99947122  0.72670144    -0.02800
C181        C  0.10770022  0.50871211  0.12886111    -0.05600
C182        C  0.10621700  0.50250071  0.17723141    -0.05500
C183        C  0.13347344  0.50326366  0.20415496    -0.23600
C184        C  0.16262151  0.50975031  0.18296276     0.18600
C185        C  0.17117451  0.01528851  0.13014104     0.15800
C186        C  0.14459036  0.01555199  0.10175325    -0.18700
C187        C  0.20092862  0.02000372  0.11048888    -0.20500
C188        C  0.22761286  0.01749405  0.13804773    -0.13100
C189        C  0.21993665  0.51082566  0.18611154     0.03600
C190        C  0.19034033  0.50815800  0.20858779    -0.25200
H191        H  0.08423503  0.49638987  0.19397765     0.08700
H192        H  0.13188677  0.49784512  0.24127519     0.12300
H193        H  0.14763185  0.01980278  0.06449896     0.12200
H194        H  0.20363698  0.02499065  0.07336866     0.12000
H195        H  0.24994896  0.02127366  0.12118624     0.12500
H196        H  0.18908114  0.50240316  0.24564449     0.14500
C197        C  0.39417557  0.50321459  0.12771065    -0.05600
C198        C  0.39861424  0.01409158  0.16915949    -0.05500
C199        C  0.37100600  0.01950377  0.19446395    -0.23600
C200        C  0.34253723  0.00571702  0.18066918     0.18600
C201        C  0.33770974  0.49440458  0.13700361     0.15800
C202        C  0.36548182  0.49105829  0.11141830    -0.18700
C203        C  0.30988190  0.48094541  0.12091450    -0.20500
C204        C  0.28220231  0.48407181  0.14621656    -0.13100
C205        C  0.28067237  0.50287035  0.18655909     0.03600
C206        C  0.31421478  0.01267269  0.20377777    -0.25200
H207        H  0.41976960  0.02636890  0.17914617     0.08700
H208        H  0.37175713  0.03532039  0.22394370     0.12300
H209        H  0.36458567  0.47900375  0.07821371     0.12200
H210        H  0.30963252  0.46725967  0.08913122     0.12000
H211        H  0.26163915  0.47178727  0.13388556     0.12500
H212        H  0.31501465  0.02820616  0.23351091     0.14500
C213        C  0.00345864  0.38829280  0.13234969    -0.05600
C214        C  0.49719447  0.39663252  0.18113633    -0.05500
C215        C  0.49492663  0.36912769  0.20952795    -0.23600
C216        C  0.50163376  0.33921985  0.19108167     0.18600
C217        C  0.01507412  0.33276770  0.14726656     0.15800
C218        C  0.01798057  0.36014973  0.11939414    -0.18700
C219        C  0.02852738  0.30465484  0.13282194    -0.20500
C220        C  0.02392620  0.27687275  0.15878992    -0.13100
C221        C  0.00558321  0.27618164  0.20003922     0.03600
C222        C  0.49888407  0.31117333  0.21836628    -0.25200
H223        H  0.49131874  0.41918963  0.19593811     0.08700
H224        H  0.48758672  0.37120568  0.24570659     0.12300
H225        H  0.03096452  0.35928713  0.08676191     0.12200
H226        H  0.04232090  0.30401880  0.10095775     0.12000
H227        H  0.03490346  0.25572364  0.14637429     0.12500
H228        H  0.49166158  0.31265440  0.25466951     0.14500
C229        C  0.00053838  0.21595862  0.19794927    -0.05600
C230        C  0.98023830  0.21656255  0.15924624    -0.05500
C231        C  0.97619591  0.19030162  0.13080661    -0.23600
C232        C  0.99197068  0.16236902  0.14054900     0.18600
C233        C  0.51024847  0.16373525  0.18452948     0.15800
C234        C  0.51447138  0.19121370  0.21142419    -0.18700
C235        C  0.52597105  0.13573127  0.19542646    -0.20500
C236        C  0.52261391  0.10899910  0.16718948    -0.13100
C237        C  0.00486193  0.10818880  0.12063736     0.03600
C238        C  0.98898630  0.13629776  0.11098026    -0.25200
H239        H  0.96750910  0.23767523  0.15066627     0.08700
H240        H  0.96080676  0.19192548  0.10100868     0.12300
H241        H  0.52912122  0.18999782  0.24200483     0.12200
H242        H  0.54140722  0.13471239  0.22520092     0.12000
H243        H  0.53582861  0.08812010  0.17544559     0.12500
H244        H  0.97463313  0.13803119  0.08012030     0.14500
C245        C  0.18094261  0.33623913  0.10293735    -0.05600
C246        C  0.18001785  0.36578698  0.12446280    -0.05500
C247        C  0.16231204  0.39003595  0.10516776    -0.23600
C248        C  0.14516065  0.38489364  0.06425639     0.18600
C249        C  0.14541224  0.35485848  0.04319218     0.15800
C250        C  0.16347197  0.33088044  0.06243117    -0.18700
C251        C  0.12756895  0.34924658  0.00324833    -0.20500
C252        C  0.10914328  0.37304389  0.98471079    -0.13100
C253        C  0.10888468  0.40302032  0.00509028     0.03600
C254        C  0.12726515  0.40899807  0.04453740    -0.25200
H255        H  0.19368049  0.37022142  0.15543808     0.08700
H256        H  0.16220824  0.41281499  0.12199442     0.12300
H257        H  0.16448888  0.30816058  0.04544274     0.12200
H258        H  0.12729708  0.32626047  0.98702542     0.12000
H259        H  0.09445595  0.36785591  0.95502442     0.12500
H260        H  0.12622110  0.43176596  0.06138045     0.14500
C261        C  0.41231955  0.39838450  0.02937881    -0.05600
C262        C  0.39835996  0.41119899  0.06927558    -0.05500
C263        C  0.37904836  0.39291147  0.09793995    -0.23600
C264        C  0.37284417  0.36158549  0.08653686     0.18600
C265        C  0.38722022  0.34813074  0.04676184     0.15800
C266        C  0.40767098  0.36653633  0.01883612    -0.18700
C267        C  0.37973747  0.31703235  0.03468582    -0.20500
C268        C  0.35685226  0.30031667  0.05999069    -0.13100
C269        C  0.34201066  0.31413843  0.09855474     0.03600
C270        C  0.35115167  0.34413119  0.11297476    -0.25200
H271        H  0.40280103  0.43551307  0.07864381     0.08700
H272        H  0.36833472  0.40352050  0.12825456     0.12300
H273        H  0.41884943  0.35664369  0.98833492     0.12200
H274        H  0.39043025  0.30624474  0.00451210     0.12000
H275        H  0.34988055  0.27699500  0.04853355     0.12500
H276        H  0.33967639  0.35461294  0.14279308     0.14500
C277        C  0.32700902  0.17175168  0.08383744    -0.05600
C278        C  0.34656359  0.18723414  0.05091002    -0.05500
C279        C  0.36825502  0.17039993  0.02527851    -0.23600
C280        C  0.37045900  0.13773039  0.03180252     0.18600
C281        C  0.35049760  0.12195359  0.06450975     0.15800
C282        C  0.32902918  0.13909900  0.09054836    -0.18700
C283        C  0.35249415  0.08931366  0.07091047    -0.20500
C284        C  0.37429447  0.07247824  0.04564015    -0.13100
C285        C  0.39457924  0.08793523  0.01356963     0.03600
C286        C  0.39256264  0.12063549  0.00672595    -0.25200
H287        H  0.34480850  0.21244250  0.04484088     0.08700
H288        H  0.38318594  0.18288794  0.00030301     0.12300
H289        H  0.31369338  0.12716771  0.11562306     0.12200
H290        H  0.33756417  0.07686649  0.09596113     0.12000
H291        H  0.37605922  0.04737059  0.05261397     0.12500
H292        H  0.40839079  0.13272100  0.98254033     0.14500
C293        C  0.16557573  0.17942853  0.09212405    -0.05600
C294        C  0.16104419  0.15061682  0.11592491    -0.05500
C295        C  0.14280483  0.12699203  0.09635073    -0.23600
C296        C  0.12891774  0.13205898  0.05282133     0.18600
C297        C  0.13191131  0.16166811  0.02964697     0.15800
C298        C  0.15039978  0.18533888  0.04960316    -0.18700
C299        C  0.11692113  0.16660561  0.98662647    -0.20500
C300        C  0.09896368  0.14231788  0.96709048    -0.13100
C301        C  0.09713228  0.11270080  0.98958167     0.03600
C302        C  0.11215991  0.10776343  0.03216618    -0.25200
H303        H  0.17313315  0.14585169  0.14834906     0.08700
H304        H  0.14035362  0.10444445  0.11450445     0.12300
H305        H  0.15446949  0.20754198  0.03106428     0.12200
H306        H  0.11876429  0.18922500  0.96857400     0.12000
H307        H  0.08663600  0.14653342  0.93471638     0.12500
H308        H  0.10973555  0.08514460  0.05026757     0.14500
C309        C  0.28861904  0.99265702  0.75712535    -0.05600
C310        C  0.28246289  0.48201866  0.81310641    -0.05500
C311        C  0.30941172  0.47787691  0.83965874    -0.23600
C312        C  0.33900652  0.48244533  0.81944340     0.18600
C313        C  0.34574247  0.99476563  0.76652755     0.15800
C314        C  0.31905152  0.99793375  0.73835538    -0.18700
C315        C  0.37552618  0.00354881  0.74973353    -0.20500
C316        C  0.40158736  0.00213703  0.77909282    -0.13100
C317        C  0.39844648  0.99189771  0.82598632     0.03600
C318        C  0.36869267  0.98187172  0.84209065    -0.25200
H319        H  0.26033046  0.47838468  0.83061259     0.08700
H320        H  0.30703555  0.47209446  0.87659500     0.12300
H321        H  0.32176171  0.00638882  0.70254841     0.12200
H322        H  0.37850519  0.01252131  0.71435961     0.12000
H323        H  0.42399756  0.01001165  0.76546598     0.12500
H324        H  0.36322963  0.47749134  0.88456286     0.14500
C325        C  0.11572941  0.00225148  0.81955617    -0.05600
C326        C  0.11190620  0.48315303  0.79194486    -0.05500
C327        C  0.13929604  0.47789919  0.76616262    -0.23600
C328        C  0.16767152  0.49240593  0.77868058     0.18600
C329        C  0.17215823  0.01097478  0.80771049     0.15800
C330        C  0.14475368  0.01463100  0.83443302    -0.18700
C331        C  0.20052667  0.02389568  0.82274482    -0.20500
C332        C  0.22782006  0.02002917  0.79661991    -0.13100
C333        C  0.22834693  0.00148498  0.75589361     0.03600
C334        C  0.19549966  0.48656128  0.75358269    -0.25200
H335        H  0.09073696  0.47075559  0.78232279     0.08700
H336        H  0.13835987  0.46201974  0.73677221     0.12300
H337        H  0.14618598  0.02690972  0.86742791     0.12200
H338        H  0.20158092  0.03747031  0.85459758     0.12000
H339        H  0.24891551  0.03146541  0.80869107     0.12500
H340        H  0.19419477  0.47115648  0.72377239     0.14500
C341        C  0.00048161  0.11090448  0.81888499    -0.05600
C342        C  0.50332578  0.11122948  0.77525452    -0.05500
C343        C  0.50348910  0.13812825  0.74554845    -0.23600
C344        C  0.50074863  0.16873472  0.76381118     0.18600
C345        C  0.99713917  0.16875441  0.80746596     0.15800
C346        C  0.99601884  0.14169715  0.83679865    -0.18700
C347        C  0.99257677  0.19910772  0.82555669    -0.20500
C348        C  0.99356104  0.22601875  0.79624798    -0.13100
C349        C  0.99944084  0.22345103  0.74789941     0.03600
C350        C  0.50104253  0.19591823  0.73437204    -0.25200
H351        H  0.50552365  0.08813180  0.75989655     0.08700
H352        H  0.50581909  0.13500498  0.70816386     0.12300
H353        H  0.99175774  0.14484836  0.87386886     0.12200
H354        H  0.98789044  0.20204878  0.86254545     0.12000
H355        H  0.98886900  0.24863682  0.81160676     0.12500
H356        H  0.50361637  0.19306407  0.69689483     0.14500
C357        C  0.99715985  0.28592426  0.73607035    -0.05600
C358        C  0.97537086  0.30885706  0.72137557    -0.05500
C359        C  0.97402607  0.33877083  0.74162810    -0.23600
C360        C  0.99592782  0.34851765  0.77446175     0.18600
C361        C  0.51716651  0.33069287  0.79223977     0.15800
C362        C  0.51793357  0.30001818  0.77315194    -0.21100
C363        C  0.54026599  0.34092799  0.82313347    -0.20500
C364        C  0.53863289  0.37068838  0.84365985    -0.13100
C365        C  0.01625733  0.38841200  0.82884602     0.03600
C366        C  0.99426210  0.37885605  0.79522018    -0.25200
H367        H  0.95922268  0.30438033  0.69339589     0.08700
H368        H  0.95590189  0.35461281  0.73122936     0.12300
H369        H  0.53678940  0.28449977  0.78237768     0.12200
H370        H  0.55925666  0.32559518  0.83238925     0.12000
H371        H  0.55618395  0.37730884  0.86890044     0.12500
H372        H  0.97507885  0.39422222  0.78700356     0.14500
C373        C  0.35711461  0.24683126  0.62326144    -0.05600
C374        C  0.35433607  0.24830141  0.67227780    -0.05500
C375        C  0.38105275  0.24838687  0.70064121    -0.23600
C376        C  0.41104181  0.24688709  0.68055731     0.18600
C377        C  0.41394662  0.24435194  0.63168923     0.15800
C378        C  0.38730191  0.24437746  0.60365896    -0.18700
C379        C  0.44351300  0.24174964  0.61131776    -0.20500
C380        C  0.47026326  0.24342766  0.63869367    -0.13100
C381        C  0.46839950  0.24930218  0.68716593     0.03600
C382        C  0.43819131  0.24864857  0.70805957    -0.25200
H383        H  0.33163410  0.24987947  0.68861828     0.08700
H384        H  0.37827567  0.25007424  0.73824396     0.12300
H385        H  0.39037174  0.24271814  0.56608474     0.12200
H386        H  0.44601015  0.23853613  0.57390594     0.12000
H387        H  0.49224716  0.24013246  0.62117009     0.12500
H388        H  0.43594282  0.25147138  0.74558400     0.14500
C389        C  0.13988262  0.24944529  0.61794182    -0.05600
C390        C  0.13946357  0.23142260  0.65945273    -0.05500
C391        C  0.11196542  0.22793184  0.68573793    -0.23600
C392        C  0.08450984  0.24263263  0.67113090     0.18600
C393        C  0.08492258  0.26148828  0.63011286     0.15800
C394        C  0.11250921  0.26476496  0.60382247    -0.18700
C395        C  0.05779467  0.27684583  0.61619467    -0.20500
C396        C  0.03042832  0.27351269  0.64269800    -0.13100
C397        C  0.02893626  0.25372338  0.68286442     0.03600
C398        C  0.05680053  0.23899786  0.69718732    -0.25200
H399        H  0.16006215  0.21910497  0.67063010     0.08700
H400        H  0.11207015  0.21338714  0.71721544     0.12300
H401        H  0.11258454  0.27897433  0.57193854     0.12200
H402        H  0.05782479  0.29179285  0.58509598     0.12000
H403        H  0.01014215  0.28641136  0.63169509     0.12500
H404        H  0.05752926  0.22540879  0.72946618     0.14500
C405        C  0.24007380  0.13626256  0.61292261    -0.05600
C406        C  0.21912649  0.11289830  0.59688665    -0.05500
C407        C  0.21933212  0.08199682  0.61470780    -0.23600
C408        C  0.24045026  0.07341861  0.64951359     0.18600
C409        C  0.26106828  0.09668230  0.66709772     0.15800
C410        C  0.26085313  0.12800954  0.64877068    -0.18700
C411        C  0.28150994  0.08812730  0.70275721    -0.20500
C412        C  0.28142864  0.05723737  0.72097393    -0.13100
C413        C  0.26204392  0.03295292  0.70263350     0.03600
C414        C  0.24099748  0.04206032  0.66722887    -0.25200
H415        H  0.20314095  0.11838341  0.56893548     0.08700
H416        H  0.20323881  0.06467773  0.60064432     0.12300
H417        H  0.27767564  0.14536668  0.66074598     0.12200
H418        H  0.29707441  0.10561311  0.71763424     0.12000
H419        H  0.29601587  0.05307930  0.75096914     0.12500
H420        H  0.22454445  0.02475729  0.65406462     0.14500
C421        C  0.25232759  0.47066575  0.70026990    -0.05600
C422        C  0.25745930  0.47453291  0.65164188    -0.05500
C423        C  0.25726597  0.44852982  0.62157314    -0.23600
C424        C  0.25226997  0.41762043  0.63888387     0.18600
C425        C  0.24687156  0.41287627  0.68712388     0.15800
C426        C  0.24721844  0.43919295  0.71739106    -0.18700
C427        C  0.24159983  0.38181241  0.70415016    -0.20500
C428        C  0.24226432  0.35574556  0.67385328    -0.13100
C429        C  0.24820730  0.35997613  0.62564128     0.03600
C430        C  0.25299605  0.39140566  0.60871267    -0.25200
H431        H  0.26260334  0.49751273  0.63643021     0.08700
H432        H  0.26155826  0.45262140  0.58454959     0.12300
H433        H  0.24365714  0.43525988  0.75462205     0.12200
H434        H  0.23706850  0.37762410  0.74108295     0.12000
H435        H  0.23804115  0.33227453  0.68819925     0.12500
H436        H  0.25754987  0.39565949  0.57178916     0.14500
C437        C  0.40385044  0.07326189  0.60827155    -0.05600
C438        C  0.37713264  0.08194275  0.63296536    -0.05500
C439        C  0.35580842  0.10220110  0.61208477    -0.23600
C440        C  0.36123881  0.11403615  0.56652640     0.18600
C441        C  0.38836990  0.10560923  0.54179057     0.15800
C442        C  0.40926941  0.08499420  0.56268182    -0.18700
C443        C  0.39436315  0.11829648  0.49687588    -0.20500
C444        C  0.37386902  0.13980121  0.47692703    -0.13100
C445        C  0.34675892  0.14771213  0.50106199     0.03600
C446        C  0.34030549  0.13458993  0.54550613    -0.25200
H447        H  0.37271984  0.07277840  0.66800917     0.08700
H448        H  0.33518375  0.10868120  0.63149985     0.12300
H449        H  0.42982186  0.07790217  0.54351037     0.12200
H450        H  0.41517487  0.11210434  0.47770158     0.12000
H451        H  0.37905498  0.15017926  0.44284302     0.12500
H452        H  0.31949589  0.14136095  0.56436511     0.14500
C453        C  0.05249516  0.08291188  0.53801698    -0.05600
C454        C  0.04122547  0.11196525  0.52151818    -0.05500
C455        C  0.06174004  0.13517683  0.50355441    -0.23600
C456        C  0.09370007  0.12923184  0.50019854     0.18600
C457        C  0.10483690  0.09941921  0.51431379     0.15800
C458        C  0.08447704  0.07704741  0.53449696    -0.18700
C459        C  0.13628682  0.09249410  0.50864153    -0.20500
C460        C  0.15701606  0.11557291  0.49185221    -0.13100
C461        C  0.14688234  0.14632869  0.48143981     0.03600
C462        C  0.11486667  0.15270546  0.48424596    -0.25200
H463        H  0.01656725  0.11672322  0.52262608     0.08700
H464        H  0.05262004  0.15768148  0.49217104     0.12300
H465        H  0.09351839  0.05479008  0.54721312     0.12200
H466        H  0.14500831  0.06943583  0.51820444     0.12000
H467        H  0.18135092  0.10960957  0.48926388     0.12500
H468        H  0.10656931  0.17607622  0.47557374     0.14500
C469        C  0.14936133  0.35620102  0.48433754    -0.05600
C470        C  0.16018799  0.38680727  0.49485283    -0.05500
C471        C  0.13963068  0.41023702  0.50750245    -0.23600
C472        C  0.10775302  0.40367734  0.50981926     0.18600
C473        C  0.09621232  0.37339629  0.49789382     0.15800
C474        C  0.11712123  0.34974172  0.48525353    -0.18700
C475        C  0.06408006  0.36720834  0.50013612    -0.20500
C476        C  0.04384237  0.39055690  0.51533196    -0.13100
C477        C  0.05547705  0.42028293  0.52868290     0.03600
C478        C  0.08739716  0.42678191  0.52522808    -0.25200
H479        H  0.18480166  0.39258612  0.49472714     0.08700
H480        H  0.14876982  0.43335707  0.51641921     0.12300
H481        H  0.10837617  0.32627899  0.47736586     0.12200
H482        H  0.05469564  0.34423888  0.49096514     0.12000
H483        H  0.01914545  0.38527995  0.51764874     0.12500
H484        H  0.09645923  0.44958624  0.53594112     0.14500
C485        C  0.35222170  0.35155840  0.50672483    -0.05600
C486        C  0.38190799  0.35470484  0.48660286    -0.05500
C487        C  0.40506274  0.37182871  0.50956004    -0.23600
C488        C  0.39899428  0.38457931  0.55374442     0.18600
C489        C  0.36924143  0.38072367  0.57451669     0.15800
C490        C  0.34577513  0.36517395  0.55009309    -0.18700
C491        C  0.36363303  0.39188968  0.61974963    -0.20500
C492        C  0.38699327  0.40818539  0.64343641    -0.13100
C493        C  0.41562370  0.41455617  0.62119971     0.03600
C494        C  0.42194231  0.40163859  0.57717259    -0.25200
H495        H  0.38718873  0.34357839  0.45361340     0.08700
H496        H  0.42786009  0.37439559  0.49343540     0.12300
H497        H  0.32300057  0.36183101  0.56619288     0.12200
H498        H  0.34101965  0.38868073  0.63627520     0.12000
H499        H  0.38187252  0.41829724  0.67721440     0.12500
H500        H  0.44406376  0.40663338  0.55991839     0.14500
C501        C  0.03313106  0.24678955  0.25944520    -0.05600
C502        C  0.03311745  0.26371436  0.30168115    -0.05500
C503        C  0.06056995  0.26994640  0.32580801    -0.23600
C504        C  0.08918544  0.26012779  0.30807104     0.18600
C505        C  0.09038319  0.24420189  0.26516152     0.15800
C506        C  0.06254361  0.23824043  0.24067567    -0.18700
C507        C  0.11943856  0.23464768  0.24767617    -0.20500
C508        C  0.14679908  0.23992861  0.27334602    -0.13100
C509        C  0.14547051  0.25482461  0.31694952     0.03600
C510        C  0.11655243  0.26571841  0.33312407    -0.25200
H511        H  0.01177763  0.27305072  0.31572972     0.08700
H512        H  0.05940266  0.28278220  0.35832973     0.12300
H513        H  0.06393221  0.22736535  0.20666596     0.12200
H514        H  0.12083758  0.22215080  0.21496243     0.12000
H515        H  0.16862450  0.23102958  0.26023659     0.12500
H516        H  0.11510026  0.27761311  0.36645190     0.14500
C517        C  0.36056863  0.25420893  0.32235620    -0.05600
C518        C  0.36134043  0.27245150  0.28092505    -0.05500
C519        C  0.38898780  0.27563048  0.25467041    -0.23600
C520        C  0.41617044  0.26025075  0.26899838     0.18600
C521        C  0.41518269  0.24088777  0.30949181     0.15800
C522        C  0.38757068  0.23806655  0.33583307    -0.18700
C523        C  0.44188568  0.22478184  0.32325957    -0.20500
C524        C  0.46960541  0.22832756  0.29776115    -0.13100
C525        C  0.47195593  0.24910983  0.25880499     0.03600
C526        C  0.44430637  0.26401706  0.24376317    -0.25200
H527        H  0.34100890  0.28529408  0.26993922     0.08700
H528        H  0.38933889  0.29077586  0.22383051     0.12300
H529        H  0.38723654  0.22360745  0.36745829     0.12200
H530        H  0.44130834  0.20923406  0.35369958     0.12000
H531        H  0.48947229  0.21475083  0.30865754     0.12500
H532        H  0.44434333  0.27816578  0.21194049     0.14500
C533        C  0.26378483  0.36641688  0.32819850    -0.05600
C534        C  0.28766141  0.38766280  0.34109256    -0.05500
C535        C  0.28971001  0.41814101  0.32168633    -0.23600
C536        C  0.26774383  0.42828224  0.28902664     0.18600
C537        C  0.24444949  0.40673959  0.27428300     0.15800
C538        C  0.24256122  0.37590095  0.29382935    -0.18700
C539        C  0.22327994  0.41651335  0.24047148    -0.20500
C540        C  0.22491983  0.44712665  0.22168366    -0.13100
C541        C  0.24662720  0.47009229  0.23803757     0.03600
C542        C  0.26861251  0.45958765  0.27116514    -0.25200
H543        H  0.30413294  0.38099602  0.36786594     0.08700
H544        H  0.30799475  0.43404983  0.33322247     0.12300
H545        H  0.22375343  0.35999581  0.28417649     0.12200
H546        H  0.20570971  0.40022658  0.22774222     0.12000
H547        H  0.20931993  0.45204957  0.19315217     0.12500
H548        H  0.28657526  0.47583028  0.28281151     0.14500
C549        C  0.25765679  0.14468207  0.31731642    -0.05600
C550        C  0.26268671  0.14797863  0.26871196    -0.05500
C551        C  0.26438258  0.12108324  0.24002662    -0.23600
C552        C  0.26063578  0.09029600  0.25918654     0.18600
C553        C  0.25552398  0.08680691  0.30766322     0.15800
C554        C  0.25452869  0.11362849  0.33613262    -0.18700
C555        C  0.25046648  0.05653451  0.32708262    -0.20500
C556        C  0.25000434  0.02973684  0.29888331    -0.13100
C557        C  0.25601899  0.03203499  0.25037484     0.03600
C558        C  0.26122431  0.06297143  0.23099166    -0.25200
H559        H  0.26530490  0.17124595  0.25287659     0.08700
H560        H  0.26822230  0.12440186  0.20273784     0.12300
H561        H  0.25059517  0.11003661  0.37334654     0.12200
H562        H  0.24588611  0.05361014  0.36425508     0.12000
H563        H  0.24398790  0.00744082  0.31551148     0.12500
H564        H  0.26513217  0.06570565  0.19362485     0.14500
O565        O  0.24870410  0.69921250  0.33840221    -0.86800
O566        O  0.24326825  0.69357289  0.60870460    -0.87000
O567        O  0.29361785  0.65996692  0.48276315    -0.88600
O568        O  0.19429533  0.66194322  0.47735827    -0.87400
O569        O  0.15724722  0.70004564  0.48015764    -0.87000
O570        O  0.33258530  0.69740919  0.47833015    -0.88400
O571        O  0.24192797  0.65880061  0.54749122    -0.86800
O572        O  0.24719542  0.66215086  0.39788464    -0.86400
Zr573      Zr  0.24471062  0.68751785  0.47331515     2.84300
O574        O  0.21393415  0.71830566  0.52207578    -1.08400
O575        O  0.27628715  0.71874815  0.42381578    -1.09100
C576        C  0.24853010  0.67013028  0.35414285     1.06300
C577        C  0.24180326  0.66519537  0.59154820     1.06200
C578        C  0.32238035  0.66892593  0.48465704     1.09200
C579        C  0.16598373  0.67102895  0.48129966     1.07000
H580        H  0.28798686  0.70370639  0.54223376     0.32600
O581        O  0.27559423  0.71743154  0.52293786    -1.29300
H582        H  0.20142002  0.70672219  0.40591510     0.32200
O583        O  0.21471755  0.71997474  0.42472561    -1.31000
O584        O  0.24924673  0.80198403  0.60927739    -0.86800
O585        O  0.25192229  0.80837523  0.34308041    -0.88300
O586        O  0.33267153  0.74682585  0.54904192    -0.86900
O587        O  0.15608946  0.75264103  0.54755003    -0.86900
O588        O  0.15803492  0.75094117  0.39920099    -0.86600
O589        O  0.33432616  0.74868699  0.39795266    -0.86400
O590        O  0.29800339  0.83624113  0.48891369    -0.86800
O591        O  0.19907170  0.83884476  0.47984202    -0.86300
O592        O  0.33500532  0.79807729  0.48302077    -0.87300
O593        O  0.15943982  0.80231242  0.47796777    -0.86500
O594        O  0.29749033  0.74682760  0.60988523    -0.86900
O595        O  0.29915811  0.75282015  0.33800054    -0.86600
O596        O  0.19350691  0.75164208  0.33870519    -0.86300
O597        O  0.19116203  0.74923437  0.60777717    -0.86700
O598        O  0.25075706  0.83863374  0.54944458    -0.87000
O599        O  0.25428011  0.84183590  0.40571943    -0.88300
Zr600      Zr  0.24502665  0.74811265  0.57351003     2.83100
Zr601      Zr  0.24655046  0.75247735  0.37517063     2.83500
Zr602      Zr  0.30765042  0.74825581  0.47355406     2.84100
Zr603      Zr  0.18418495  0.75099445  0.47390455     2.83400
Zr604      Zr  0.24792347  0.81152806  0.47616776     2.84200
O605        O  0.21566431  0.78339147  0.42530649    -1.08900
O606        O  0.27730158  0.77862623  0.52324680    -1.08400
C607        C  0.25121846  0.83098756  0.59313424     1.06300
C608        C  0.25541566  0.83629918  0.36171175     1.08900
C609        C  0.32571348  0.74638850  0.59303489     1.06400
C610        C  0.16296476  0.75141854  0.59139847     1.06800
C611        C  0.16506908  0.75101152  0.35524591     1.06400
C612        C  0.32735005  0.75081564  0.35406696     1.05900
C613        C  0.32606138  0.82635400  0.49104549     1.06400
C614        C  0.17007864  0.83082893  0.48173401     1.05900
H615        H  0.29289373  0.79536727  0.40865135     0.32600
O616        O  0.27864595  0.78175507  0.42610391    -1.30000
H617        H  0.20291020  0.79421513  0.54340709     0.32600
O618        O  0.21542960  0.78071812  0.52424074    -1.31400
N619        N  0.48529525  0.54406455  0.60101181    -0.36900
N620        N  0.43753429  0.99498076  0.64013940    -0.57500
N621        N  0.48753987  0.95262599  0.61050269    -0.36900
N622        N  0.02662087  0.00080302  0.56697936    -0.57500
C623        C  0.46441784  0.56210875  0.62312571     0.26700
C624        C  0.00042232  0.56112923  0.58140920     0.26700
C625        C  0.46777759  0.93375409  0.63522185     0.26700
C626        C  0.01142995  0.93614265  0.59488290     0.26700
C627        C  0.42267758  0.52239879  0.62949806     0.35300
C628        C  0.42176137  0.96768417  0.63347390     0.35300
C629        C  0.02908365  0.52574450  0.52989382     0.35300
C630        C  0.03697935  0.97559890  0.54355742     0.35300
C631        C  0.47693967  0.59203810  0.62978989    -0.22200
C632        C  0.99578925  0.58856914  0.60644110    -0.22200
C633        C  0.48260867  0.90616012  0.64781019    -0.22200
C634        C  0.00942881  0.90770213  0.61942717    -0.22200
C635        C  0.39349225  0.51118332  0.61730661    -0.23300
C636        C  0.39121502  0.97370029  0.62098661    -0.23300
C637        C  0.04544148  0.51838447  0.48952174    -0.23300
C638        C  0.05227811  0.98517554  0.50286563    -0.23300
C639        C  0.43259793  0.55425332  0.62545662    -0.18600
C640        C  0.02376566  0.55620778  0.54722183    -0.18600
C641        C  0.03393582  0.94435764  0.56053101    -0.18600
C642        C  0.43537194  0.93762119  0.63520575    -0.18600
H643        H  0.46518714  0.61222287  0.64403467     0.14300
H644        H  0.01011716  0.60978132  0.60606980     0.14300
H645        H  0.47225004  0.88566196  0.66501548     0.14300
H646        H  0.02574784  0.88852417  0.61869262     0.14300
H647        H  0.37388716  0.52433240  0.60452724     0.12600
H648        H  0.37304772  0.95686815  0.61233879     0.12600
H649        H  0.05446280  0.53463875  0.46301611     0.12600
H650        H  0.06314750  0.97040223  0.47702960     0.12600
H651        H  0.48020337  0.52277811  0.58472111     0.25800
H652        H  0.48078732  0.97186937  0.59017182     0.25800
O653        O  0.00753845  0.94455663  0.83822357    -0.86800
O654        O  0.00662191  0.94674740  0.10667233    -0.87000
O655        O  0.06166155  0.91624142  0.97893278    -0.88600
O656        O  0.46919560  0.90617801  0.98948797    -0.87400
O657        O  0.42760178  0.93938670  0.99187929    -0.87000
O658        O  0.09657579  0.95765093  0.98282602    -0.88400
O659        O  0.01127363  0.91083771  0.04767825    -0.86800
O660        O  0.01152852  0.90948347  0.89998181    -0.86400
Zr661      Zr  0.01011578  0.93791216  0.97248472     2.84300
O662        O  0.47963146  0.96660547  0.02508353    -1.08400
O663        O  0.03929913  0.97103712  0.92232046    -1.09100
C664        C  0.01019761  0.91607149  0.85591273     1.06300
C665        C  0.00893439  0.91807034  0.09127554     1.06200
C666        C  0.08894108  0.92814706  0.98571209     1.09200
C667        C  0.44059263  0.91233005  0.99713410     1.07000
H668        H  0.05230638  0.95980566  0.04022109     0.32600
O669        O  0.03881734  0.97172594  0.02004999    -1.29300
H670        H  0.46636512  0.95178875  0.90981666     0.32200
O671        O  0.47846260  0.96669525  0.92767514    -1.31000
O672        O  0.99890741  0.54883218  0.11488772    -0.86800
O673        O  0.00038949  0.55403036  0.84712686    -0.88300
O674        O  0.09396862  0.00951420  0.04424684    -0.86900
O675        O  0.41820541  0.99110903  0.05260506    -0.86900
O676        O  0.41618023  0.49287151  0.90436681    -0.86600
O677        O  0.09123481  0.50672697  0.90744370    -0.86400
O678        O  0.04057578  0.59187701  0.98796143    -0.86800
O679        O  0.44732777  0.58757887  0.98131705    -0.86300
O680        O  0.08111216  0.55737661  0.99141563    -0.87300
O681        O  0.41333284  0.54555039  0.98015305    -0.86500
O682        O  0.05898869  0.00409604  0.10494364    -0.86900
O683        O  0.05650634  0.50078818  0.84722409    -0.86600
O684        O  0.45126259  0.49632152  0.84353175    -0.86300
O685        O  0.45378714  0.99826117  0.11137272    -0.86700
O686        O  0.99320878  0.58531956  0.05549759    -0.87000
O687        O  0.99303605  0.58917395  0.90675878    -0.88300
Zr688      Zr  0.00623877  0.00020266  0.06932912     2.83100
Zr689      Zr  0.00232253  0.49858848  0.88047766     2.83500
Zr690      Zr  0.06185946  0.50384808  0.98000734     2.84100
Zr691      Zr  0.44332350  0.49829162  0.97781381     2.83400
Zr692      Zr  0.99374866  0.55987037  0.97975684     2.84200
O693        O  0.47087252  0.53220656  0.92703375    -1.08900
O694        O  0.02747483  0.53134717  0.02735601    -1.08400
C695        C  0.99605354  0.57751786  0.09908063     1.06300
C696        C  0.99680660  0.58260658  0.86318492     1.08900
C697        C  0.08712560  0.00775827  0.08824381     1.06400
C698        C  0.42548154  0.99428907  0.09609882     1.06800
C699        C  0.42308182  0.49290803  0.86034784     1.06400
C700        C  0.08464910  0.50386582  0.86371517     1.05900
C701        C  0.06939773  0.58514990  0.99397565     1.06400
C702        C  0.41977803  0.57508782  0.98429474     1.05900
H703        H  0.04150438  0.54804305  0.91370212     0.32600
O704        O  0.02899020  0.53300608  0.93149323    -1.30000
H705        H  0.45742103  0.54497297  0.04437876     0.32600
O706        O  0.47121398  0.53255321  0.02561342    -1.31400
N707        N  0.25145410  0.80498370  0.13347176    -0.36900
N708        N  0.20426364  0.75624938  0.12385450    -0.57500
N709        N  0.25068082  0.70784202  0.10619083    -0.36900
N710        N  0.29691107  0.75538521  0.11562409    -0.57500
C711        C  0.22622597  0.82294972  0.12595970     0.26700
C712        C  0.27639222  0.82213243  0.11833154     0.26700
C713        C  0.22453812  0.69530876  0.08799640     0.26700
C714        C  0.27476047  0.69560009  0.08205107     0.26700
C715        C  0.18592316  0.78067604  0.13503913     0.35300
C716        C  0.18548309  0.73044237  0.12256492     0.35300
C717        C  0.31543778  0.78008017  0.12589168     0.35300
C718        C  0.31521843  0.72990607  0.11412837     0.35300
C719        C  0.23556310  0.85269170  0.10971158    -0.22200
C720        C  0.26722844  0.85210214  0.10467922    -0.22200
C721        C  0.23190072  0.67474334  0.05239332    -0.22200
C722        C  0.26364011  0.67529349  0.04812524    -0.22200
C723        C  0.15551454  0.77024687  0.14164493    -0.23300
C724        C  0.15529753  0.73831626  0.13410656    -0.23300
C725        C  0.34562513  0.76988138  0.13301358    -0.23300
C726        C  0.34526565  0.73789649  0.12686549    -0.23300
C727        C  0.19492113  0.81262685  0.12970779    -0.18600
C728        C  0.30709926  0.81117883  0.11491002    -0.18600
C729        C  0.30642592  0.70241208  0.09038829    -0.18600
C730        C  0.19414662  0.70143938  0.10322550    -0.18600
H731        H  0.22101642  0.87239723  0.10038712     0.14300
H732        H  0.28174695  0.87134304  0.09134688     0.14300
H733        H  0.21597368  0.66143096  0.03077674     0.14300
H734        H  0.27681388  0.66262298  0.02224293     0.14300
H735        H  0.13534719  0.78449016  0.14854151     0.12600
H736        H  0.13487724  0.72307345  0.13377910     0.12600
H737        H  0.36637199  0.78386660  0.13885359     0.12600
H738        H  0.36542967  0.72291888  0.12713052     0.12600
H739        H  0.25169961  0.78234463  0.14804453     0.25800
H740        H  0.25187565  0.72183939  0.13592791     0.25800
C741        C  0.99712430  0.74763806  0.22470346    -0.02800
C742        C  0.24962190  0.50393812  0.21524893    -0.02800
C743        C  0.99286839  0.74972763  0.71865528    -0.02800
C744        C  0.25475574  0.49872797  0.73546931    -0.02800
C745        C  0.11447840  0.00962167  0.12058363    -0.05600
C746        C  0.11162562  0.00438166  0.16918574    -0.05500
C747        C  0.13811493  0.00461870  0.19793293    -0.23600
C748        C  0.16805839  0.00976486  0.17864103     0.18600
C749        C  0.16418883  0.51674164  0.13477634     0.15800
C750        C  0.13692032  0.51673338  0.10845187    -0.18700
C751        C  0.19310266  0.52300306  0.11325906    -0.20500
C752        C  0.22063390  0.52031586  0.13862727    -0.13100
C753        C  0.22535382  0.00999005  0.18619456     0.03600
C754        C  0.19500860  0.00845035  0.20654633    -0.25200
H755        H  0.08901802  0.99965751  0.18490518     0.08700
H756        H  0.13523280  0.00012814  0.23515277     0.12300
H757        H  0.13884657  0.52216487  0.07134569     0.12200
H758        H  0.19448717  0.52934480  0.07641029     0.12000
H759        H  0.24227555  0.52572476  0.12065705     0.12500
H760        H  0.19253510  0.00384274  0.24381858     0.14500
C761        C  0.39838371  0.99480404  0.12944889    -0.05600
C762        C  0.39441055  0.51827938  0.17135896    -0.05500
C763        C  0.36647744  0.52231451  0.19677453    -0.23600
C764        C  0.33781089  0.51094562  0.17942064     0.18600
C765        C  0.34246477  0.98473265  0.14277271     0.15800
C766        C  0.37019376  0.97936492  0.11762927    -0.18700
C767        C  0.31450484  0.96995234  0.12987603    -0.20500
C768        C  0.28667839  0.97661014  0.15315228    -0.13100
C769        C  0.28542043  0.99892748  0.18949411     0.03600
C770        C  0.30935862  0.51541891  0.20367779    -0.25200
H771        H  0.41592073  0.52793010  0.18500821     0.08700
H772        H  0.36725815  0.53462555  0.22976392     0.12300
H773        H  0.36956255  0.96401253  0.08755894     0.12200
H774        H  0.31409926  0.95315286  0.10159164     0.12000
H775        H  0.26579301  0.96409779  0.14261464     0.12500
H776        H  0.30992056  0.52774600  0.23661651     0.14500
C777        C  0.00822897  0.89059163  0.12491590    -0.05600
C778        C  0.50053520  0.89613578  0.17406211    -0.05500
C779        C  0.49521421  0.86936797  0.20257297    -0.23600
C780        C  0.50245733  0.83917826  0.18637454     0.18600
C781        C  0.01287871  0.83338480  0.13785551     0.15800
C782        C  0.01681542  0.86043465  0.10922810    -0.18700
C783        C  0.02045731  0.80359176  0.12099513    -0.20500
C784        C  0.01487573  0.77644037  0.14821881    -0.13100
C785        C  0.00126069  0.77795293  0.19337564     0.03600
C786        C  0.49524399  0.81192633  0.21330484    -0.25200
H787        H  0.49317904  0.91889709  0.18646568     0.08700
H788        H  0.48439582  0.87217460  0.23660116     0.12300
H789        H  0.02590754  0.85774513  0.07403106     0.12200
H790        H  0.03058734  0.80119849  0.08639638     0.12000
H791        H  0.02201627  0.75421669  0.13376858     0.12500
H792        H  0.48509958  0.81444504  0.24784927     0.14500
C793        C  0.99576849  0.71700648  0.19510462    -0.05600
C794        C  0.97438585  0.71531042  0.15788010    -0.05500
C795        C  0.96972605  0.68752304  0.13303908    -0.23600
C796        C  0.98534781  0.66001001  0.14571175     0.18600
C797        C  0.50938013  0.66655585  0.18252311     0.15800
C798        C  0.51274044  0.69385441  0.20983786    -0.18700
C799        C  0.52800982  0.64007363  0.19047149    -0.20500
C800        C  0.52478500  0.61322101  0.16263688    -0.13100
C801        C  0.99676707  0.60441490  0.13210066     0.03600
C802        C  0.98096714  0.63222897  0.12018665    -0.25200
H803        H  0.96101098  0.73578914  0.14810024     0.08700
H804        H  0.95352540  0.68748123  0.10414684     0.12300
H805        H  0.52869601  0.69334326  0.23889970     0.12200
H806        H  0.54543915  0.64033236  0.21767417     0.12000
H807        H  0.54005433  0.59347388  0.16844149     0.12500
H808        H  0.96578091  0.63248753  0.09003088     0.14500
C809        C  0.17123803  0.83466124  0.11236829    -0.05600
C810        C  0.15802560  0.85739472  0.14127461    -0.05500
C811        C  0.13940845  0.88089561  0.12175133    -0.23600
C812        C  0.13454761  0.88211549  0.07312517     0.18600
C813        C  0.14773216  0.85898235  0.04416366     0.15800
C814        C  0.16563395  0.83526187  0.06412037    -0.18700
C815        C  0.14312449  0.86010614  0.99559055    -0.20500
C816        C  0.12493174  0.88364165  0.97574441    -0.13100
C817        C  0.11183067  0.90653365  0.00421309     0.03600
C818        C  0.11673054  0.90592225  0.05277113    -0.25200
H819        H  0.16278193  0.85736486  0.17846137     0.08700
H820        H  0.12943218  0.89846418  0.14438247     0.12300
H821        H  0.17644231  0.81789893  0.04194100     0.12200
H822        H  0.15317858  0.84250454  0.97311328     0.12000
H823        H  0.12058407  0.88369084  0.93843373     0.12500
H824        H  0.10578756  0.92335696  0.07470484     0.14500
C825        C  0.42225796  0.88767977  0.01986203    -0.05600
C826        C  0.43017922  0.87902286  0.06578239    -0.05500
C827        C  0.40886385  0.86263678  0.09398219    -0.23600
C828        C  0.37986576  0.85421411  0.07587161     0.18600
C829        C  0.37325771  0.85998822  0.02797858     0.15800
C830        C  0.39440485  0.87731375  0.00034572    -0.18700
C831        C  0.34511226  0.84944706  0.00919074    -0.20500
C832        C  0.32353580  0.83372401  0.03791346    -0.13100
C833        C  0.32934691  0.82968538  0.08600718     0.03600
C834        C  0.35722123  0.84053227  0.10499475    -0.25200
H835        H  0.45184792  0.88712096  0.08093497     0.08700
H836        H  0.41458901  0.85755983  0.13018442     0.12300
H837        H  0.38871956  0.88397986  0.96466097     0.12200
H838        H  0.33993030  0.85315780  0.97246400     0.12000
H839        H  0.30218383  0.82473858  0.02277664     0.12500
H840        H  0.36148376  0.83758395  0.14215738     0.14500
C841        C  0.33064835  0.68308520  0.06734841    -0.05600
C842        C  0.35469425  0.69762340  0.04070681    -0.05500
C843        C  0.37707764  0.67954944  0.01849937    -0.23600
C844        C  0.37460820  0.64659858  0.01988737     0.18600
C845        C  0.34941985  0.63181709  0.04410267     0.15800
C846        C  0.32847908  0.65003169  0.06928797    -0.18700
C847        C  0.34555059  0.59905005  0.04275185    -0.20500
C848        C  0.36736363  0.58090509  0.01968843    -0.13100
C849        C  0.39385259  0.59515598  0.99854730     0.03600
C850        C  0.39699403  0.62815647  0.99787320    -0.25200
H851        H  0.35616594  0.72306555  0.03693405     0.08700
H852        H  0.39588179  0.69132930  0.99941588     0.12300
H853        H  0.30989246  0.63856985  0.08933065     0.12200
H854        H  0.32600673  0.58739989  0.06026733     0.12000
H855        H  0.36432248  0.55547366  0.02092968     0.12500
H856        H  0.41715760  0.63939246  0.98138597     0.14500
C857        C  0.17003837  0.67773833  0.09177275    -0.05600
C858        C  0.17064149  0.64784372  0.11336434    -0.05500
C859        C  0.15095757  0.62372447  0.09810248    -0.23600
C860        C  0.13056222  0.62930487  0.06094782     0.18600
C861        C  0.12947404  0.65958603  0.03957961     0.15800
C862        C  0.14938996  0.68362486  0.05505619    -0.18700
C863        C  0.10868872  0.66515671  0.00285634    -0.20500
C864        C  0.08894139  0.64093791  0.98763801    -0.13100
C865        C  0.09047857  0.61073319  0.00808408     0.03600
C866        C  0.11130781  0.60504920  0.04468962    -0.25200
H867        H  0.18698779  0.64303868  0.14116643     0.08700
H868        H  0.15201275  0.60063751  0.11479714     0.12300
H869        H  0.14955290  0.70660591  0.03785717     0.12200
H870        H  0.10756529  0.68823878  0.98620282     0.12000
H871        H  0.07272154  0.64564173  0.95965224     0.12500
H872        H  0.11199070  0.58186181  0.06122158     0.14500
C873        C  0.28419764  0.49080336  0.76526931    -0.05600
C874        C  0.28641651  0.97912097  0.80248764    -0.05500
C875        C  0.31287703  0.97477483  0.82996597    -0.23600
C876        C  0.34247542  0.98354073  0.81296397     0.18600
C877        C  0.34160433  0.48870232  0.77105297     0.15800
C878        C  0.31429453  0.49143393  0.74399553    -0.18700
C879        C  0.37142474  0.49359466  0.75118765    -0.20500
C880        C  0.39817404  0.49401951  0.77944080    -0.13100
C881        C  0.39574062  0.48907142  0.82816014     0.03600
C882        C  0.36589326  0.48203499  0.84730963    -0.25200
H883        H  0.26418841  0.97177162  0.81715228     0.08700
H884        H  0.31006152  0.96511877  0.86508193     0.12300
H885        H  0.31642001  0.49656261  0.70682213     0.12200
H886        H  0.37394549  0.49837807  0.71404473     0.12000
H887        H  0.42058083  0.49917096  0.76332940     0.12500
H888        H  0.36564228  0.97353387  0.87789220     0.14500
C889        C  0.11222960  0.50269065  0.83131889    -0.05600
C890        C  0.11475138  0.98705570  0.77605336    -0.05500
C891        C  0.14216067  0.98300591  0.74939997    -0.23600
C892        C  0.17119378  0.99433851  0.76534422     0.18600
C893        C  0.16805597  0.51327745  0.81671646     0.15800
C894        C  0.14056579  0.51804701  0.84300516    -0.18700
C895        C  0.19595784  0.52895242  0.82787068    -0.20500
C896        C  0.22327908  0.52360801  0.80225761    -0.13100
C897        C  0.22418870  0.50154931  0.76550542     0.03600
C898        C  0.19917093  0.98955620  0.73979573    -0.25200
H899        H  0.09302049  0.97725176  0.76344315     0.08700
H900        H  0.14069818  0.97055433  0.71658687     0.12300
H901        H  0.14134375  0.53336350  0.87310432     0.12200
H902        H  0.19663259  0.54567170  0.85624532     0.12000
H903        H  0.24406390  0.53690738  0.81119023     0.12500
H904        H  0.19793974  0.97721092  0.70690932     0.14500
C905        C  0.99759088  0.61076504  0.83032664    -0.05600
C906        C  0.50312058  0.61085456  0.77457615    -0.05500
C907        C  0.50254510  0.63770355  0.74479142    -0.23600
C908        C  0.49833465  0.66819428  0.76294743     0.18600
C909        C  0.99218744  0.66826089  0.81679178     0.15800
C910        C  0.99082374  0.64146412  0.84687669    -0.18700
C911        C  0.98503500  0.69858322  0.83298743    -0.20500
C912        C  0.98599876  0.72500407  0.80258002    -0.13100
C913        C  0.99437689  0.72195910  0.75499852     0.03600
C914        C  0.49765515  0.69532400  0.73350769    -0.25200
H915        H  0.50654340  0.58785620  0.75943975     0.08700
H916        H  0.50552178  0.63461864  0.70745152     0.12300
H917        H  0.98434061  0.64463468  0.88322585     0.12200
H918        H  0.97823372  0.70183588  0.86918046     0.12000
H919        H  0.97918152  0.74755290  0.81629352     0.12500
H920        H  0.50015745  0.69248077  0.69601972     0.14500
C921        C  0.99015678  0.78344254  0.74050491    -0.05600
C922        C  0.96813563  0.80601496  0.72525777    -0.05500
C923        C  0.96780744  0.83682182  0.74297037    -0.23600
C924        C  0.99046021  0.84702219  0.77467011     0.18600
C925        C  0.51530979  0.83130563  0.78736488     0.15800
C926        C  0.51485981  0.79995956  0.77071601    -0.21100
C927        C  0.53924097  0.84174504  0.81654735    -0.20500
C928        C  0.53880113  0.87203440  0.83534473    -0.13100
C929        C  0.01318197  0.88758765  0.82567302     0.03600
C930        C  0.99023265  0.87800908  0.79341407    -0.25200
H931        H  0.95145277  0.80066704  0.69833302     0.08700
H932        H  0.95011612  0.85291380  0.73099109     0.12300
H933        H  0.53342922  0.78421309  0.78041760     0.12200
H934        H  0.55791933  0.82610342  0.82609223     0.12000
H935        H  0.55690794  0.87866319  0.85968225     0.12500
H936        H  0.97153125  0.89388231  0.78482887     0.14500
C937        C  0.35318467  0.74526280  0.62494597    -0.05600
C938        C  0.35069886  0.74857143  0.67377017    -0.05500
C939        C  0.37755150  0.74897157  0.70177104    -0.23600
C940        C  0.40734762  0.74625610  0.68141513     0.18600
C941        C  0.40993756  0.74224082  0.63275591     0.15800
C942        C  0.38312991  0.74154147  0.60518805    -0.18700
C943        C  0.43938262  0.73936425  0.61201293    -0.20500
C944        C  0.46635480  0.74235000  0.63868007    -0.13100
C945        C  0.46467416  0.74870924  0.68694610     0.03600
C946        C  0.43464524  0.74840751  0.70836659    -0.25200
H947        H  0.32815080  0.75133691  0.69018249     0.08700
H948        H  0.37505905  0.75202198  0.73920421     0.12300
H949        H  0.38589529  0.73856923  0.56777308     0.12200
H950        H  0.44160859  0.73534511  0.57475676     0.12000
H951        H  0.48838978  0.73970501  0.62094329     0.12500
H952        H  0.43267076  0.75194900  0.74578062     0.14500
C953        C  0.13558648  0.75191105  0.62416269    -0.05600
C954        C  0.13576409  0.73535404  0.66707443    -0.05500
C955        C  0.10839023  0.73171187  0.69395763    -0.23600
C956        C  0.08019974  0.74466538  0.67866419     0.18600
C957        C  0.08001846  0.76274871  0.63691398     0.15800
C958        C  0.10757389  0.76628374  0.61001902    -0.18700
C959        C  0.05218371  0.77664880  0.62250236    -0.20500
C960        C  0.02462163  0.77191978  0.64839518    -0.13100
C961        C  0.02355572  0.75230934  0.68881705     0.03600
C962        C  0.05226841  0.73972584  0.70434265    -0.25200
H963        H  0.15674400  0.72398815  0.67884264     0.08700
H964        H  0.10911307  0.71802927  0.72622856     0.12300
H965        H  0.10700645  0.77960104  0.57735586     0.12200
H966        H  0.05170143  0.79129336  0.59112641     0.12000
H967        H  0.00381595  0.78363955  0.63668263     0.12500
H968        H  0.05335789  0.72667049  0.73706766     0.14500
C969        C  0.23820601  0.63682002  0.62293854    -0.05600
C970        C  0.21287310  0.61624776  0.61488356    -0.05500
C971        C  0.21137216  0.58597077  0.63508216    -0.23600
C972        C  0.23535296  0.57516731  0.66382334     0.18600
C973        C  0.26034393  0.59591250  0.67420259     0.15800
C974        C  0.26177102  0.62669109  0.65365046    -0.18700
C975        C  0.28351371  0.58524671  0.70453086    -0.20500
C976        C  0.28218199  0.55453047  0.72374873    -0.13100
C977        C  0.25838407  0.53244210  0.71165453     0.03600
C978        C  0.23468425  0.54389905  0.68198128    -0.25200
H979        H  0.19461641  0.62326572  0.59114242     0.08700
H980        H  0.19176377  0.57065390  0.62709284     0.12300
H981        H  0.28175249  0.64197883  0.65966013     0.12200
H982        H  0.30249163  0.60091328  0.71423157     0.12000
H983        H  0.29960558  0.54899535  0.74941851     0.12500
H984        H  0.21529842  0.52839753  0.67355050     0.14500
C985        C  0.25827892  0.97084292  0.69288512    -0.05600
C986        C  0.26749950  0.97311858  0.64542243    -0.05500
C987        C  0.26883708  0.94615883  0.61733503    -0.23600
C988        C  0.26134689  0.91601603  0.63582090     0.18600
C989        C  0.25262986  0.91295974  0.68324615     0.15800
C990        C  0.25142902  0.94012548  0.71132650    -0.18700
C991        C  0.24521851  0.88274247  0.70175671    -0.20500
C992        C  0.24569699  0.85588127  0.67327924    -0.13100
C993        C  0.25368274  0.85856610  0.62561997     0.03600
C994        C  0.26215198  0.88894186  0.60757549    -0.25200
H995        H  0.27463271  0.99552900  0.62998234     0.08700
H996        H  0.27598136  0.94889759  0.58103441     0.12300
H997        H  0.24515085  0.93740796  0.74796764     0.12200
H998        H  0.23852059  0.87993511  0.73822030     0.12000
H999        H  0.23901211  0.83315437  0.68829046     0.12500
H1000       H  0.26885112  0.89174742  0.57108355     0.14500
C1001       C  0.41012842  0.57823234  0.60878790    -0.05600
C1002       C  0.38172777  0.58268909  0.63219637    -0.05500
C1003       C  0.35811236  0.59983918  0.61073643    -0.23600
C1004       C  0.36294460  0.61350933  0.56618804     0.18600
C1005       C  0.39220069  0.61098243  0.54387127     0.15800
C1006       C  0.41543983  0.59318190  0.56511168    -0.18700
C1007       C  0.39762590  0.62604127  0.50044855    -0.20500
C1008       C  0.37434454  0.64393227  0.47962085    -0.13100
C1009       C  0.34502913  0.64588668  0.50104510     0.03600
C1010       C  0.33926929  0.63022471  0.54395747    -0.25200
H1011       H  0.37726605  0.57136078  0.66585334     0.08700
H1012       H  0.33596051  0.60202302  0.62862340     0.12300
H1013       H  0.43723638  0.58978578  0.54666969     0.12200
H1014       H  0.42008188  0.62462185  0.48322183     0.12000
H1015       H  0.37931366  0.65667378  0.44722361     0.12500
H1016       H  0.31694824  0.63270860  0.56136761     0.14500
C1017       C  0.04549975  0.58210895  0.53254830    -0.05600
C1018       C  0.03500346  0.61180498  0.51752420    -0.05500
C1019       C  0.05638945  0.63557046  0.50409535    -0.23600
C1020       C  0.08840219  0.62945721  0.50381553     0.18600
C1021       C  0.09876482  0.59916575  0.51700363     0.15800
C1022       C  0.07748377  0.57627762  0.53273503    -0.18700
C1023       C  0.13031399  0.59206146  0.51441409    -0.20500
C1024       C  0.15180838  0.61517641  0.50057993    -0.13100
C1025       C  0.14223276  0.64606096  0.48995443     0.03600
C1026       C  0.11030782  0.65297170  0.49099836    -0.25200
H1027       H  0.01035532  0.61658531  0.51632424     0.08700
H1028       H  0.04792695  0.65851934  0.49349537     0.12300
H1029       H  0.08582650  0.55354254  0.54470116     0.12200
H1030       H  0.13842444  0.56868989  0.52355473     0.12000
H1031       H  0.17614533  0.60899574  0.49985573     0.12500
H1032       H  0.10255905  0.67656622  0.48243688     0.14500
C1033       C  0.14801701  0.85616656  0.49270066    -0.05600
C1034       C  0.15956863  0.88484237  0.51056468    -0.05500
C1035       C  0.13945696  0.90758977  0.52718039    -0.23600
C1036       C  0.10733004  0.90234943  0.52584706     0.18600
C1037       C  0.09521680  0.87412630  0.50670287     0.15800
C1038       C  0.11565521  0.85109110  0.49040639    -0.18700
C1039       C  0.06289690  0.86932982  0.50489863    -0.20500
C1040       C  0.04287901  0.89220318  0.52216572    -0.13100
C1041       C  0.05490672  0.91996403  0.54198299     0.03600
C1042       C  0.08716223  0.92486983  0.54368763    -0.25200
H1043       H  0.18433618  0.88936755  0.51337529     0.08700
H1044       H  0.14907742  0.92911763  0.54167225     0.12300
H1045       H  0.10641026  0.82909887  0.47688272     0.12200
H1046       H  0.05313200  0.84795347  0.49017422     0.12000
H1047       H  0.01797919  0.88828409  0.52013508     0.12500
H1048       H  0.09648391  0.94628549  0.55901092     0.14500
C1049       C  0.34912104  0.84804620  0.50969388    -0.05600
C1050       C  0.37555034  0.85703457  0.48374924    -0.05500
C1051       C  0.39890339  0.87509066  0.50461637    -0.23600
C1052       C  0.39632097  0.88326016  0.55194240     0.18600
C1053       C  0.36981692  0.87370371  0.57836114     0.15800
C1054       C  0.34607014  0.85667138  0.55667449    -0.18700
C1055       C  0.36756083  0.88133488  0.62592607    -0.20500
C1056       C  0.39072767  0.89979313  0.64658260    -0.13100
C1057       C  0.41615709  0.91074449  0.61970786     0.03600
C1058       C  0.41939846  0.90154286  0.57296195    -0.25200
H1059       H  0.37810694  0.84994100  0.44764530     0.08700
H1060       H  0.41912423  0.88227751  0.48404501     0.12300
H1061       H  0.32571691  0.84902478  0.57672494     0.12200
H1062       H  0.34745070  0.87394232  0.64660947     0.12000
H1063       H  0.38786898  0.90729355  0.68244277     0.12500
H1064       H  0.43887621  0.91051538  0.55212430     0.14500
C1065       C  0.02619337  0.74840007  0.25714931    -0.05600
C1066       C  0.02411108  0.75501338  0.30538707    -0.05500
C1067       C  0.05072844  0.75656174  0.33332342    -0.23600
C1068       C  0.08042398  0.75226555  0.31394381     0.18600
C1069       C  0.08340649  0.74634842  0.26582769     0.15800
C1070       C  0.05648232  0.74473895  0.23776836    -0.18700
C1071       C  0.11331046  0.74219314  0.24672083    -0.20500
C1072       C  0.14005724  0.74413049  0.27488302    -0.13100
C1073       C  0.13742531  0.75004705  0.32309872     0.03600
C1074       C  0.10716320  0.75405027  0.34202247    -0.25200
H1075       H  0.00200998  0.75973245  0.32187845     0.08700
H1076       H  0.04806665  0.76152855  0.37024112     0.12300
H1077       H  0.05903553  0.74034438  0.20068118     0.12200
H1078       H  0.11587221  0.73721706  0.20996542     0.12000
H1079       H  0.16266622  0.74060563  0.25904272     0.12500
H1080       H  0.10418910  0.75866311  0.37899529     0.14500
C1081       C  0.35464124  0.75152110  0.32105612    -0.05600
C1082       C  0.35469830  0.76897133  0.27875753    -0.05500
C1083       C  0.38241111  0.77340215  0.25256438    -0.23600
C1084       C  0.41053887  0.76011271  0.26774481     0.18600
C1085       C  0.41016634  0.74114199  0.30867971     0.15800
C1086       C  0.38251553  0.73706051  0.33487356    -0.18700
C1087       C  0.43751703  0.72654988  0.32313217    -0.20500
C1088       C  0.46516512  0.73086738  0.29774498    -0.13100
C1089       C  0.46709364  0.75128169  0.25832109     0.03600
C1090       C  0.43893358  0.76524038  0.24292063    -0.25200
H1091       H  0.33372144  0.78039367  0.26707226     0.08700
H1092       H  0.38200096  0.78785645  0.22104727     0.12300
H1093       H  0.38288273  0.72301742  0.36687797     0.12200
H1094       H  0.43746186  0.71130048  0.35389362     0.12000
H1095       H  0.48537499  0.71796947  0.30903329     0.12500
H1096       H  0.43879108  0.77934059  0.21104472     0.14500
C1097       C  0.26226544  0.86537962  0.33312989    -0.05600
C1098       C  0.28432588  0.88729266  0.35048450    -0.05500
C1099       C  0.28715689  0.91795533  0.33186622    -0.23600
C1100       C  0.26774862  0.92781332  0.29552999     0.18600
C1101       C  0.24600514  0.90594438  0.27708836     0.15800
C1102       C  0.24354566  0.87478650  0.29554941    -0.18700
C1103       C  0.22680861  0.91570506  0.24070152    -0.20500
C1104       C  0.22873878  0.94659835  0.22305927    -0.13100
C1105       C  0.24941543  0.96966823  0.24184674     0.03600
C1106       C  0.26973896  0.95907424  0.27738418    -0.25200
H1107       H  0.29879656  0.88093339  0.37995540     0.08700
H1108       H  0.30399889  0.93418405  0.34675966     0.12300
H1109       H  0.22599519  0.85857723  0.28250549     0.12200
H1110       H  0.21051129  0.89920902  0.22512356     0.12000
H1111       H  0.21459401  0.95154319  0.19284537     0.12500
H1112       H  0.28735644  0.97514335  0.29059955     0.14500
C1113       C  0.24975555  0.64293717  0.32086396    -0.05600
C1114       C  0.25556031  0.64709314  0.27259518    -0.05500
C1115       C  0.25724412  0.62083324  0.24293490    -0.23600
C1116       C  0.25303409  0.58986564  0.26086523     0.18600
C1117       C  0.24658738  0.58544453  0.30887664     0.15800
C1118       C  0.24521550  0.61173325  0.33834736    -0.18700
C1119       C  0.24129103  0.55477119  0.32679902    -0.20500
C1120       C  0.24281477  0.52847163  0.29768720    -0.13100
C1121       C  0.25028192  0.53200123  0.24979100     0.03600
C1122       C  0.25490953  0.56325720  0.23178583    -0.25200
H1123       H  0.25907180  0.67056362  0.25782759     0.08700
H1124       H  0.26190504  0.62475352  0.20596100     0.12300
H1125       H  0.24039976  0.60767027  0.37524072     0.12200
H1126       H  0.23554965  0.55110697  0.36348468     0.12000
H1127       H  0.23723562  0.50555742  0.31281693     0.12500
H1128       H  0.25961270  0.56676497  0.19473169     0.14500
O1129       O  0.75360577  0.19678633  0.34100770    -0.86800
O1130       O  0.74532745  0.19328277  0.60809381    -0.87000
O1131       O  0.79342784  0.15883334  0.48572957    -0.88600
O1132       O  0.69394342  0.16589845  0.47742197    -0.87400
O1133       O  0.65795333  0.20492817  0.48042508    -0.87000
O1134       O  0.83403979  0.19451600  0.48184461    -0.88400
O1135       O  0.74024620  0.15912142  0.54655171    -0.86800
O1136       O  0.74859962  0.15999786  0.40041873    -0.86400
Zr1137     Zr  0.74599699  0.18782773  0.47367836     2.84300
O1138       O  0.71689255  0.22001635  0.52213670    -1.08400
O1139       O  0.78016028  0.21705145  0.42582293    -1.09100
C1140       C  0.75195258  0.16763954  0.35683319     1.06300
C1141       C  0.74143624  0.16524909  0.59051029     1.06200
C1142       C  0.82239398  0.16665788  0.48823134     1.09200
C1143       C  0.66596011  0.17572724  0.48256237     1.07000
H1144       H  0.78960887  0.20206524  0.54380535     0.32600
O1145       O  0.77800510  0.21621833  0.52406641    -1.29300
H1146       H  0.70403880  0.20809012  0.40559929     0.32200
O1147       O  0.71768488  0.22088024  0.42452156    -1.31000
O1148       O  0.75222689  0.30163570  0.61110284    -0.86800
O1149       O  0.75414768  0.30590671  0.34208578    -0.88300
O1150       O  0.83672844  0.24282425  0.55084609    -0.86900
O1151       O  0.66094208  0.25290697  0.54765399    -0.86900
O1152       O  0.66432713  0.25561905  0.39720291    -0.86600
O1153       O  0.84079768  0.24443375  0.40364627    -0.86400
O1154       O  0.80691621  0.33492485  0.48534118    -0.86800
O1155       O  0.70722545  0.34146347  0.48654255    -0.86300
O1156       O  0.84130321  0.29414806  0.48703975    -0.87300
O1157       O  0.66668787  0.30596536  0.48263751    -0.86500
O1158       O  0.80127347  0.24467394  0.61113159    -0.86900
O1159       O  0.80628974  0.24967743  0.34303126    -0.86600
O1160       O  0.70024412  0.25133847  0.33775112    -0.86300
O1161       O  0.69547066  0.24814986  0.60839365    -0.86700
O1162       O  0.75654175  0.33829666  0.55147577    -0.87000
O1163       O  0.75617017  0.34044758  0.40367236    -0.88300
Zr1164     Zr  0.74901690  0.24807651  0.57425592     2.83100
Zr1165     Zr  0.75221626  0.25107881  0.37630469     2.83500
Zr1166     Zr  0.81157556  0.24616995  0.47612028     2.84100
Zr1167     Zr  0.68869031  0.25363388  0.47355163     2.83400
Zr1168     Zr  0.75490042  0.31201745  0.47701034     2.84200
O1169       O  0.72259951  0.28386935  0.42602283    -1.08900
O1170       O  0.78276438  0.27825345  0.52541508    -1.08400
C1171       C  0.75485221  0.33065928  0.59523379     1.06300
C1172       C  0.75600838  0.33414033  0.35973275     1.08900
C1173       C  0.82949382  0.24275172  0.59461150     1.06400
C1174       C  0.66749695  0.25056616  0.59155314     1.06800
C1175       C  0.67183227  0.25365918  0.35348349     1.06400
C1176       C  0.83428690  0.24655474  0.35976889     1.05900
C1177       C  0.83427435  0.32337957  0.49068639     1.06400
C1178       C  0.67808831  0.33390588  0.48950490     1.05900
H1179       H  0.79910113  0.29375367  0.40941352     0.32600
O1180       O  0.78454975  0.28061935  0.42715612    -1.30000
H1181       H  0.70904488  0.29498012  0.54400775     0.32600
O1182       O  0.72121046  0.28161788  0.52418751    -1.31400
N1183       N  0.98299074  0.04583246  0.59993578    -0.36900
N1184       N  0.94120138  0.49077202  0.64196125    -0.57500
N1185       N  0.98924684  0.45005844  0.59915120    -0.36900
N1186       N  0.53314556  0.49793389  0.58334918    -0.57500
C1187       C  0.96315596  0.06216626  0.62669672     0.26700
C1188       C  0.50443501  0.06500357  0.60317763     0.26700
C1189       C  0.97522123  0.43294315  0.63345071     0.26700
C1190       C  0.51606822  0.43374410  0.61570464     0.26700
C1191       C  0.92139978  0.02228124  0.63332225     0.35300
C1192       C  0.92700046  0.46211125  0.64154640     0.35300
C1193       C  0.53749740  0.02908591  0.55902595     0.35300
C1194       C  0.54576030  0.47153399  0.56602524     0.35300
C1195       C  0.97580269  0.09173365  0.63558580    -0.22200
C1196       C  0.49777071  0.09283124  0.62598763    -0.22200
C1197       C  0.99373987  0.40762703  0.64548800    -0.22200
C1198       C  0.51073304  0.40493825  0.63819992    -0.22200
C1199       C  0.89153808  0.01153948  0.62361424    -0.23300
C1200       C  0.89536499  0.46535210  0.63428363    -0.23300
C1201       C  0.55549923  0.02162389  0.52038096    -0.23300
C1202       C  0.56243790  0.47843665  0.52540251    -0.23300
C1203       C  0.93144726  0.05404259  0.63086311    -0.18600
C1204       C  0.53023426  0.05987277  0.57369508    -0.18600
C1205       C  0.54175280  0.44119516  0.58611593    -0.18600
C1206       C  0.94294799  0.43322844  0.63918127    -0.18600
H1207       H  0.96456612  0.11092084  0.65338032     0.14300
H1208       H  0.51234748  0.11378995  0.62813227     0.14300
H1209       H  0.98775137  0.38832015  0.66916961     0.14300
H1210       H  0.52625378  0.38509085  0.63993799     0.14300
H1211       H  0.87140073  0.02529836  0.61466512     0.12600
H1212       H  0.87806625  0.44669193  0.63097158     0.12600
H1213       H  0.56525464  0.03769705  0.49422584     0.12600
H1214       H  0.57468328  0.46218343  0.50321180     0.12600
H1215       H  0.97690817  0.02551923  0.58183153     0.25800
H1216       H  0.97801627  0.46660485  0.57816897     0.25800
O1217       O  0.50732167  0.44765194  0.84637068    -0.86800
O1218       O  0.50413077  0.45121955  0.11590815    -0.87000
O1219       O  0.56095264  0.41973987  0.98773773    -0.88600
O1220       O  0.96043404  0.40270377  0.98056877    -0.87400
O1221       O  0.91943259  0.43641353  0.98104382    -0.87000
O1222       O  0.59584608  0.46122268  0.98771067    -0.88400
O1223       O  0.50908956  0.41535340  0.05701336    -0.86800
O1224       O  0.51096772  0.41249321  0.90826910    -0.86400
Zr1225     Zr  0.50880617  0.44091577  0.98076239     2.84300
O1226       O  0.97253397  0.46193579  0.02765649    -1.08400
O1227       O  0.53732409  0.47399140  0.92952769    -1.09100
C1228       C  0.51021231  0.41927632  0.86418973     1.06300
C1229       C  0.50657706  0.42253100  0.10059927     1.06200
C1230       C  0.58856718  0.43168539  0.99178273     1.09200
C1231       C  0.93128003  0.40867996  0.98278811     1.07000
H1232       H  0.55069707  0.46352418  0.04783998     0.32600
O1233       O  0.53701753  0.47530600  0.02781346    -1.29300
H1234       H  0.96207232  0.44831576  0.91043244     0.32200
O1235       O  0.97368952  0.46301653  0.92937413    -1.31000
O1236       O  0.50605550  0.05448752  0.10951422    -0.86800
O1237       O  0.50351557  0.05726368  0.84140127    -0.88300
O1238       O  0.59130179  0.51224525  0.05066250    -0.86900
O1239       O  0.91196494  0.48647048  0.05230143    -0.86900
O1240       O  0.91805626  0.99347623  0.89833727    -0.86600
O1241       O  0.59491685  0.01018432  0.90140485    -0.86400
O1242       O  0.54705516  0.09400245  0.98718134    -0.86800
O1243       O  0.94966953  0.08406821  0.97873286    -0.86300
O1244       O  0.58856532  0.06095344  0.97991409    -0.87300
O1245       O  0.91400780  0.04354159  0.98242266    -0.86500
O1246       O  0.55621525  0.50840967  0.11141648    -0.86900
O1247       O  0.55943168  0.00305095  0.84250951    -0.86600
O1248       O  0.95308080  0.99632643  0.83722474    -0.86300
O1249       O  0.94670530  0.49502677  0.11182273    -0.86700
O1250       O  0.49925036  0.09099161  0.05034690    -0.87000
O1251       O  0.49873288  0.09267417  0.90119764    -0.88300
Zr1252     Zr  0.50360438  0.50406810  0.07636246     2.83100
Zr1253     Zr  0.50595261  0.00261942  0.87748546     2.83500
Zr1254     Zr  0.56720798  0.00860281  0.97473089     2.84100
Zr1255     Zr  0.94445946  0.99568026  0.97223329     2.83400
Zr1256     Zr  0.49937124  0.06419136  0.97559233     2.84200
O1257       O  0.97250248  0.02890904  0.92082331    -1.08900
O1258       O  0.53351900  0.03609908  0.02296734    -1.08400
C1259       C  0.50277834  0.08317358  0.09382624     1.06300
C1260       C  0.50089023  0.08597733  0.85731574     1.08900
C1261       C  0.58430715  0.51138639  0.09452061     1.06400
C1262       C  0.91874423  0.49091870  0.09566660     1.06800
C1263       C  0.92494538  0.99405681  0.85437487     1.06400
C1264       C  0.58769694  0.00633020  0.85821090     1.05900
C1265       C  0.57619715  0.08766161  0.98831999     1.06400
C1266       C  0.92193937  0.07294713  0.98599063     1.05900
H1267       H  0.54603344  0.05226512  0.90790633     0.32600
O1268       O  0.53381724  0.03740128  0.92645388    -1.30000
H1269       H  0.96002294  0.04121489  0.03962610     0.32600
O1270       O  0.97339546  0.02899633  0.01986896    -1.31400
N1271       N  0.74345644  0.29276435  0.10568701    -0.36900
N1272       N  0.69521862  0.25268956  0.14312399    -0.57500
N1273       N  0.73627288  0.19946645  0.11213414    -0.36900
N1274       N  0.78400551  0.24033415  0.08086924    -0.57500
C1275       C  0.72468090  0.31346200  0.12703593     0.26700
C1276       C  0.77113312  0.30739157  0.09891223     0.26700
C1277       C  0.71397424  0.18571384  0.13898255     0.26700
C1278       C  0.75910977  0.17819088  0.10605273     0.26700
C1279       C  0.67881378  0.27914510  0.13433038     0.35300
C1280       C  0.67490745  0.22834471  0.13911125     0.35300
C1281       C  0.79731779  0.26442903  0.05659439     0.35300
C1282       C  0.79351297  0.21360653  0.06030639     0.35300
C1283       C  0.74076695  0.34139415  0.13509449    -0.22200
C1284       C  0.77040465  0.33736488  0.11802745    -0.22200
C1285       C  0.72255062  0.15505689  0.14999643    -0.22200
C1286       C  0.75118450  0.15038536  0.12938591    -0.22200
C1287       C  0.64771287  0.27179425  0.12781834    -0.23300
C1288       C  0.64527253  0.23950202  0.13027219    -0.23300
C1289       C  0.81563897  0.25301689  0.02056671    -0.23300
C1290       C  0.81328945  0.22071572  0.02303320    -0.23300
C1291       C  0.69230443  0.30953992  0.12937052    -0.18600
C1292       C  0.79446723  0.29641536  0.06860406    -0.18600
C1293       C  0.78531531  0.18297918  0.07651855    -0.18600
C1294       C  0.68312396  0.19620233  0.13975841    -0.18600
H1295       H  0.73175056  0.36289798  0.14959112     0.14300
H1296       H  0.78863966  0.35526210  0.11686481     0.14300
H1297       H  0.70847295  0.13722134  0.16796594     0.14300
H1298       H  0.76382671  0.12851352  0.12941258     0.14300
H1299       H  0.62904482  0.28785432  0.12010521     0.12600
H1300       H  0.62420046  0.22578651  0.12479121     0.12600
H1301       H  0.82915931  0.26648793  0.99497778     0.12600
H1302       H  0.82449864  0.20441264  0.99970745     0.12600
H1303       H  0.73604730  0.27250660  0.08854320     0.25800
H1304       H  0.73295715  0.21982138  0.09218115     0.25800
C1305       C  0.50241357  0.25034447  0.22905219    -0.02800
C1306       C  0.75524697  0.00167135  0.21464178    -0.02800
C1307       C  0.49761190  0.25595182  0.71814720    -0.02800
C1308       C  0.75687981  0.99944939  0.73203740    -0.02800
C1309       C  0.61148277  0.51345624  0.12644979    -0.05600
C1310       C  0.60853919  0.50870585  0.17504739    -0.05500
C1311       C  0.63499393  0.50884108  0.20355530    -0.23600
C1312       C  0.66483705  0.51319963  0.18382081     0.18600
C1313       C  0.67085630  0.01771505  0.13247556     0.15800
C1314       C  0.64392980  0.01926842  0.10527193    -0.18700
C1315       C  0.70015188  0.02375365  0.11221002    -0.20500
C1316       C  0.72720858  0.01997981  0.13834024    -0.13100
C1317       C  0.72164711  0.51055271  0.19051403     0.03600
C1318       C  0.69163863  0.51108742  0.21141447    -0.25200
H1319       H  0.58591216  0.50435898  0.19090420     0.08700
H1320       H  0.63218516  0.50463683  0.24085188     0.12300
H1321       H  0.64636645  0.02530333  0.06841920     0.12200
H1322       H  0.70219825  0.03100465  0.07577543     0.12000
H1323       H  0.74914560  0.02552452  0.12127369     0.12500
H1324       H  0.68918796  0.50685024  0.24878624     0.14500
C1325       C  0.89166182  0.49342872  0.12792010    -0.05600
C1326       C  0.89867828  0.01559448  0.16437084    -0.05500
C1327       C  0.87110839  0.02092764  0.18973645    -0.23600
C1328       C  0.84239750  0.00843821  0.17454695     0.18600
C1329       C  0.83617660  0.48379919  0.14296669     0.15800
C1330       C  0.86352341  0.47756095  0.11771200    -0.18700
C1331       C  0.80826994  0.46812158  0.13241681    -0.20500
C1332       C  0.78102534  0.47476296  0.15699108    -0.13100
C1333       C  0.78046810  0.49779841  0.19235315     0.03600
C1334       C  0.81445074  0.01377980  0.19943191    -0.25200
H1335       H  0.92023372  0.02637797  0.17594732     0.08700
H1336       H  0.87218889  0.03516533  0.22092573     0.12300
H1337       H  0.86275487  0.46085133  0.08928282     0.12200
H1338       H  0.80750724  0.45051570  0.10524694     0.12000
H1339       H  0.76004243  0.46166913  0.14844434     0.12500
H1340       H  0.81557439  0.02741292  0.23114621     0.14500
C1341       C  0.50620775  0.39471455  0.13376816    -0.05600
C1342       C  0.98724318  0.38903697  0.17526003    -0.05500
C1343       C  0.98466801  0.36180610  0.20376009    -0.23600
C1344       C  0.99804504  0.33333707  0.18961212     0.18600
C1345       C  0.51129161  0.33733171  0.14404138     0.15800
C1346       C  0.51360465  0.36472728  0.11613937    -0.18700
C1347       C  0.51874873  0.30803714  0.12522967    -0.20500
C1348       C  0.51612301  0.28049886  0.15229578    -0.13100
C1349       C  0.50482939  0.28108714  0.19872030     0.03600
C1350       C  0.99438793  0.30537123  0.21654014    -0.25200
H1351       H  0.97570574  0.41032587  0.18600726     0.08700
H1352       H  0.97149776  0.36278411  0.23617446     0.12300
H1353       H  0.52100615  0.36240478  0.08001928     0.12200
H1354       H  0.52693640  0.30640431  0.08939168     0.12000
H1355       H  0.52341866  0.25872307  0.13659157     0.12500
H1356       H  0.98253267  0.30636002  0.25003824     0.14500
C1357       C  0.49953059  0.21981107  0.19931000    -0.05600
C1358       C  0.47775127  0.21871171  0.16245718    -0.05500
C1359       C  0.47352171  0.19165461  0.13565640    -0.23600
C1360       C  0.49010662  0.16426366  0.14575889     0.18600
C1361       C  0.01120660  0.16054793  0.18030997     0.15800
C1362       C  0.01480244  0.18698641  0.20925731    -0.18700
C1363       C  0.02662634  0.13229321  0.19030953    -0.20500
C1364       C  0.02339697  0.10632412  0.16080462    -0.13100
C1365       C  0.50356467  0.10977781  0.12741083     0.03600
C1366       C  0.48697654  0.13747609  0.11748215    -0.25200
H1367       H  0.46418606  0.23924778  0.15374793     0.08700
H1368       H  0.45728149  0.19223145  0.10682350     0.12300
H1369       H  0.02856721  0.18478328  0.24066980     0.12200
H1370       H  0.04156974  0.13042742  0.22056072     0.12000
H1371       H  0.03618035  0.08508377  0.16858928     0.12500
H1372       H  0.47190344  0.13833720  0.08722232     0.14500
C1373       C  0.67346358  0.33602175  0.11125777    -0.05600
C1374       C  0.66716776  0.36259305  0.13834307    -0.05500
C1375       C  0.65167956  0.38835668  0.11859014    -0.23600
C1376       C  0.64194504  0.38758624  0.07170588     0.18600
C1377       C  0.64821160  0.36078033  0.04443202     0.15800
C1378       C  0.66416541  0.33542277  0.06426500    -0.18700
C1379       C  0.63772356  0.35937621  0.99809025    -0.20500
C1380       C  0.61961313  0.38353964  0.97964575    -0.13100
C1381       C  0.61282900  0.40992204  0.00664820     0.03600
C1382       C  0.62487207  0.41241937  0.05212895    -0.25200
H1383       H  0.67454565  0.36347732  0.17447701     0.08700
H1384       H  0.64702043  0.40868136  0.14004643     0.12300
H1385       H  0.66940604  0.31502857  0.04320908     0.12200
H1386       H  0.64237467  0.33896189  0.97683468     0.12000
H1387       H  0.61003845  0.38121899  0.94485439     0.12500
H1388       H  0.61900360  0.43258057  0.07331695     0.14500
C1389       C  0.90999328  0.38198654  0.99182206    -0.05600
C1390       C  0.92128464  0.35424121  0.01271693    -0.05500
C1391       C  0.90073685  0.33171349  0.03141546    -0.23600
C1392       C  0.86872293  0.33652986  0.02892599     0.18600
C1393       C  0.85715710  0.36329201  0.00500922     0.15800
C1394       C  0.87789776  0.38583518  0.98650093    -0.18700
C1395       C  0.82505766  0.36757314  0.00137586    -0.20500
C1396       C  0.80458552  0.34556683  0.02169691    -0.13100
C1397       C  0.81605941  0.31963376  0.04691892     0.03600
C1398       C  0.84810108  0.31528641  0.05064775    -0.25200
H1399       H  0.94599038  0.35080165  0.01725706     0.08700
H1400       H  0.90987253  0.31108164  0.04908976     0.12300
H1401       H  0.86903656  0.40701947  0.96992943     0.12200
H1402       H  0.81584536  0.38786611  0.98295433     0.12000
H1403       H  0.77977553  0.34882758  0.01811703     0.12500
H1404       H  0.85684340  0.29521167  0.07021534     0.14500
C1405       C  0.80566581  0.15614948  0.06317645    -0.05600
C1406       C  0.79361603  0.12875534  0.04210786    -0.05500
C1407       C  0.81366344  0.10584879  0.02438195    -0.23600
C1408       C  0.84606881  0.11055367  0.02590746     0.18600
C1409       C  0.85813076  0.13775939  0.04797665     0.15800
C1410       C  0.83800240  0.15957968  0.06780141    -0.18700
C1411       C  0.89016378  0.14356570  0.04830837    -0.20500
C1412       C  0.91019676  0.12302673  0.02614854    -0.13100
C1413       C  0.89893819  0.09553452  0.00439490     0.03600
C1414       C  0.86665447  0.08912430  0.00500856    -0.25200
H1415       H  0.76875636  0.12557693  0.03803471     0.08700
H1416       H  0.80383772  0.08514244  0.00782799     0.12300
H1417       H  0.84752628  0.18039968  0.08454195     0.12200
H1418       H  0.89975257  0.16435556  0.06499379     0.12000
H1419       H  0.93482271  0.12848089  0.02693858     0.12500
H1420       H  0.85761635  0.06791774  0.98881726     0.14500
C1421       C  0.66051767  0.17398700  0.12024249    -0.05600
C1422       C  0.63623734  0.16070287  0.14708227    -0.05500
C1423       C  0.61389587  0.14172363  0.12551688    -0.23600
C1424       C  0.61591673  0.13624084  0.07719135     0.18600
C1425       C  0.64083470  0.14933742  0.05046903     0.15800
C1426       C  0.66283230  0.16821570  0.07222869    -0.18700
C1427       C  0.64345604  0.14325583  0.00247092    -0.20500
C1428       C  0.62161961  0.12379167  0.98102510    -0.13100
C1429       C  0.59667104  0.11139248  0.00725542     0.03600
C1430       C  0.59370122  0.11762179  0.05507460    -0.25200
H1431       H  0.63441203  0.16544827  0.18415727     0.08700
H1432       H  0.59500009  0.13159229  0.14635309     0.12300
H1433       H  0.68167586  0.17893694  0.05179498     0.12200
H1434       H  0.66266399  0.15299894  0.98188983     0.12000
H1435       H  0.62429747  0.11810019  0.94436534     0.12500
H1436       H  0.57479330  0.10684361  0.07531930     0.14500
C1437       C  0.78619730  0.99225004  0.76169443    -0.05600
C1438       C  0.78191385  0.48162036  0.80893471    -0.05500
C1439       C  0.80852244  0.47644909  0.83572364    -0.23600
C1440       C  0.83826436  0.48161810  0.81642212     0.18600
C1441       C  0.84328409  0.99247314  0.76700451     0.15800
C1442       C  0.81603716  0.99428719  0.74020886    -0.18700
C1443       C  0.87254397  0.00020048  0.74743948    -0.20500
C1444       C  0.89943880  0.00018016  0.77501266    -0.13100
C1445       C  0.89753313  0.99196926  0.82274466     0.03600
C1446       C  0.86811171  0.98337319  0.84192258    -0.25200
H1447       H  0.75959441  0.47729926  0.82559018     0.08700
H1448       H  0.80577356  0.46931815  0.87211263     0.12300
H1449       H  0.81788465  0.00012176  0.70320700     0.12200
H1450       H  0.87434297  0.00762610  0.71132346     0.12000
H1451       H  0.92146977  0.00735094  0.75929867     0.12500
H1452       H  0.86191197  0.47322923  0.88115443     0.14500
C1453       C  0.61483517  0.00427378  0.82581910    -0.05600
C1454       C  0.61161836  0.48667230  0.78493398    -0.05500
C1455       C  0.63888962  0.48100452  0.75895308    -0.23600
C1456       C  0.66768441  0.49431724  0.77224305     0.18600
C1457       C  0.67033843  0.01508242  0.81122266     0.15800
C1458       C  0.64266240  0.02086487  0.83604040    -0.18700
C1459       C  0.69797175  0.03128181  0.82198037    -0.20500
C1460       C  0.72551467  0.02507356  0.79770185    -0.13100
C1461       C  0.72659114  0.00221244  0.76208133     0.03600
C1462       C  0.69559903  0.48766765  0.74773008    -0.25200
H1463       H  0.59011172  0.47505759  0.77491983     0.08700
H1464       H  0.63755451  0.46562191  0.72901367     0.12300
H1465       H  0.64294893  0.03775141  0.86425758     0.12200
H1466       H  0.69827709  0.04897547  0.84904275     0.12000
H1467       H  0.74620481  0.03864103  0.80626825     0.12500
H1468       H  0.69440528  0.47230198  0.71781581     0.14500
C1469       C  0.50053989  0.11420565  0.82415608    -0.05600
C1470       C  0.00607247  0.10807140  0.77061670    -0.05500
C1471       C  0.00723913  0.13499659  0.74119498    -0.23600
C1472       C  0.00274057  0.16541518  0.75925650     0.18600
C1473       C  0.49757849  0.17216948  0.81250721     0.15800
C1474       C  0.49763750  0.14516728  0.84214472    -0.18700
C1475       C  0.49414056  0.20258433  0.83086755    -0.20500
C1476       C  0.49400930  0.22944951  0.80147594    -0.13100
C1477       C  0.49805505  0.22691652  0.75263346     0.03600
C1478       C  0.00357518  0.19251233  0.72994835    -0.25200
H1479       H  0.00984300  0.08509153  0.75561945     0.08700
H1480       H  0.01182079  0.13204042  0.70420864     0.12300
H1481       H  0.49536357  0.14847317  0.87954930     0.12200
H1482       H  0.49120304  0.20562218  0.86823098     0.12000
H1483       H  0.49026584  0.25204011  0.81746429     0.12500
H1484       H  0.00754146  0.18961265  0.69275534     0.14500
C1485       C  0.49476526  0.28916762  0.74192345    -0.05600
C1486       C  0.47170849  0.31133509  0.72898632    -0.05500
C1487       C  0.47027546  0.34131534  0.74900676    -0.23600
C1488       C  0.49284156  0.35140901  0.78068491     0.18600
C1489       C  0.01966354  0.32739969  0.78701494     0.15800
C1490       C  0.02010823  0.29644135  0.76813634    -0.21100
C1491       C  0.04228805  0.33757725  0.81882375    -0.20500
C1492       C  0.04050887  0.36746223  0.83943392    -0.13100
C1493       C  0.51412084  0.39131653  0.83360880     0.03600
C1494       C  0.49139587  0.38167024  0.80129100    -0.25200
H1495       H  0.45478564  0.30641537  0.70227380     0.08700
H1496       H  0.45162566  0.35686881  0.73899608     0.12300
H1497       H  0.03833954  0.28045346  0.77840345     0.12200
H1498       H  0.06095494  0.32206244  0.82887921     0.12000
H1499       H  0.05763989  0.37383091  0.86543298     0.12500
H1500       H  0.47199561  0.39695061  0.79391131     0.14500
C1501       C  0.85672106  0.24075963  0.62652816    -0.05600
C1502       C  0.85551737  0.25124055  0.67292033    -0.05500
C1503       C  0.88271312  0.25285750  0.69981255    -0.23600
C1504       C  0.91163704  0.24471731  0.68041632     0.18600
C1505       C  0.91305304  0.23384893  0.63414364     0.15800
C1506       C  0.88563656  0.23104408  0.60814581    -0.18700
C1507       C  0.94199044  0.22692194  0.61405264    -0.20500
C1508       C  0.96954453  0.23267843  0.63856676    -0.13100
C1509       C  0.96884744  0.24502343  0.68429862     0.03600
C1510       C  0.93927255  0.24832349  0.70590862    -0.25200
H1511       H  0.83382797  0.25914202  0.68786514     0.08700
H1512       H  0.88131437  0.26161536  0.73521772     0.12300
H1513       H  0.88715520  0.22252322  0.57258525     0.12200
H1514       H  0.94338512  0.21783985  0.57881107     0.12000
H1515       H  0.99124999  0.22692703  0.62164647     0.12500
H1516       H  0.93796473  0.25588897  0.74195744     0.14500
C1517       C  0.64001342  0.25075892  0.62384255    -0.05600
C1518       C  0.63941315  0.23354662  0.66623663    -0.05500
C1519       C  0.61193525  0.23112448  0.69316768    -0.23600
C1520       C  0.58463118  0.24624208  0.67858313     0.18600
C1521       C  0.58553091  0.26500585  0.63748937     0.15800
C1522       C  0.61289632  0.26677724  0.61016129    -0.18700
C1523       C  0.55912914  0.28196701  0.62461251    -0.20500
C1524       C  0.53177545  0.27964644  0.65140189    -0.13100
C1525       C  0.52894275  0.25837246  0.68981470     0.03600
C1526       C  0.55650226  0.24286525  0.70422705    -0.25200
H1527       H  0.65981665  0.22100289  0.67766011     0.08700
H1528       H  0.61191941  0.21702612  0.72508919     0.12300
H1529       H  0.61304711  0.28064773  0.57796880     0.12200
H1530       H  0.55970838  0.29736289  0.59399548     0.12000
H1531       H  0.51220768  0.29387822  0.64110557     0.12500
H1532       H  0.55656767  0.22860041  0.73590605     0.14500
C1533       C  0.73764806  0.13681477  0.62116560    -0.05600
C1534       C  0.71340070  0.11535367  0.61103997    -0.05500
C1535       C  0.71273359  0.08480071  0.63007062    -0.23600
C1536       C  0.73643637  0.07481438  0.65985704     0.18600
C1537       C  0.76031250  0.09644971  0.67201871     0.15800
C1538       C  0.76084630  0.12741601  0.65267432    -0.18700
C1539       C  0.78333919  0.08656335  0.70295875    -0.20500
C1540       C  0.78283964  0.05577519  0.72145163    -0.13100
C1541       C  0.76009242  0.03293349  0.70795576     0.03600
C1542       C  0.73653203  0.04355398  0.67753521    -0.25200
H1543       H  0.69539975  0.12201415  0.58679608     0.08700
H1544       H  0.69402793  0.06875013  0.62054442     0.12300
H1545       H  0.78003439  0.14344591  0.66005281     0.12200
H1546       H  0.80142146  0.10292099  0.71388771     0.12000
H1547       H  0.79984467  0.05087147  0.74803268     0.12500
H1548       H  0.71778971  0.02744524  0.66835266     0.14500
C1549       C  0.75341892  0.47020251  0.69723129    -0.05600
C1550       C  0.75704148  0.47336932  0.64825544    -0.05500
C1551       C  0.75769440  0.44681191  0.61945518    -0.23600
C1552       C  0.75584366  0.41610795  0.63857079     0.18600
C1553       C  0.75306008  0.41200175  0.68735922     0.15800
C1554       C  0.75123270  0.43888877  0.71614508    -0.18700
C1555       C  0.75240115  0.38105963  0.70632076    -0.20500
C1556       C  0.75360496  0.35451971  0.67705154    -0.13100
C1557       C  0.75537718  0.35826846  0.62808434     0.03600
C1558       C  0.75686520  0.38950740  0.60949297    -0.25200
H1559       H  0.76009618  0.49624268  0.63163890     0.08700
H1560       H  0.76027182  0.45034155  0.58197877     0.12300
H1561       H  0.74889114  0.43551104  0.75367270     0.12200
H1562       H  0.75077914  0.37736027  0.74386383     0.12000
H1563       H  0.75275290  0.33110933  0.69272891     0.12500
H1564       H  0.75855774  0.39338686  0.57198409     0.14500
C1565       C  0.90914136  0.07752317  0.61374883    -0.05600
C1566       C  0.88320076  0.08613805  0.64045473    -0.05500
C1567       C  0.86003527  0.10451032  0.62016734    -0.23600
C1568       C  0.86267217  0.11416726  0.57304807     0.18600
C1569       C  0.88888849  0.10554378  0.54627435     0.15800
C1570       C  0.91185650  0.08737313  0.56685157    -0.18700
C1571       C  0.89179945  0.11523212  0.49928983    -0.20500
C1572       C  0.86935105  0.13437520  0.47925267    -0.13100
C1573       C  0.84344444  0.14298043  0.50563684     0.03600
C1574       C  0.83985917  0.13264195  0.55223992    -0.25200
H1575       H  0.88052749  0.07783954  0.67631366     0.08700
H1576       H  0.83998564  0.11085157  0.64100246     0.12300
H1577       H  0.93151846  0.07993134  0.54593960     0.12200
H1578       H  0.91178722  0.10866298  0.47848671     0.12000
H1579       H  0.87237745  0.14289964  0.44355883     0.12500
H1580       H  0.82004329  0.14020446  0.57275665     0.14500
C1581       C  0.55033890  0.08681870  0.55734703    -0.05600
C1582       C  0.53795246  0.11488026  0.53874771    -0.05500
C1583       C  0.55772699  0.13884772  0.52079810    -0.23600
C1584       C  0.59001061  0.13432950  0.51894719     0.18600
C1585       C  0.60215486  0.10577475  0.53665558     0.15800
C1586       C  0.58258761  0.08321168  0.55768238    -0.18700
C1587       C  0.63368952  0.09953440  0.53203228    -0.20500
C1588       C  0.65343136  0.12158306  0.51084839    -0.13100
C1589       C  0.64254248  0.15123162  0.49603777     0.03600
C1590       C  0.61048966  0.15745571  0.49969959    -0.25200
H1591       H  0.51303679  0.11805250  0.53744795     0.08700
H1592       H  0.54774946  0.16036376  0.50706718     0.12300
H1593       H  0.59241563  0.06189570  0.57248711     0.12200
H1594       H  0.64314344  0.07742891  0.54456086     0.12000
H1595       H  0.67775850  0.11566265  0.50804607     0.12500
H1596       H  0.60163906  0.18002770  0.48803154     0.14500
C1597       C  0.65654875  0.35827658  0.50646169    -0.05600
C1598       C  0.66821014  0.38413197  0.53181013    -0.05500
C1599       C  0.64803591  0.40456805  0.55446627    -0.23600
C1600       C  0.61579006  0.39969208  0.55199319     0.18600
C1601       C  0.60375433  0.37422978  0.52583235     0.15800
C1602       C  0.62416853  0.35369120  0.50335115    -0.18700
C1603       C  0.57146781  0.36966703  0.52273341    -0.20500
C1604       C  0.55126431  0.39054363  0.54445872    -0.13100
C1605       C  0.56299168  0.41604183  0.57019181     0.03600
C1606       C  0.59534716  0.42016344  0.57451669    -0.25200
H1607       H  0.69302295  0.38791617  0.53572425     0.08700
H1608       H  0.65767433  0.42397725  0.57433139     0.12300
H1609       H  0.61483572  0.33378702  0.48422049     0.12200
H1610       H  0.56184233  0.35036252  0.50266137     0.12000
H1611       H  0.52643255  0.38747660  0.53981139     0.12500
H1612       H  0.60447530  0.44011776  0.59378176     0.14500
C1613       C  0.85890933  0.34460181  0.50681235    -0.05600
C1614       C  0.86474988  0.37372385  0.48451307    -0.05500
C1615       C  0.88559614  0.39526735  0.50407277    -0.23600
C1616       C  0.89925887  0.38853266  0.54742641     0.18600
C1617       C  0.89336363  0.35923146  0.57021958     0.15800
C1618       C  0.87411043  0.33693179  0.54874472    -0.18700
C1619       C  0.90506397  0.35369181  0.61536487    -0.20500
C1620       C  0.92097600  0.37779252  0.63863669    -0.13100
C1621       C  0.92666421  0.40682090  0.61608468     0.03600
C1622       C  0.91709631  0.41144720  0.56967464    -0.25200
H1623       H  0.85285422  0.37989371  0.45244771     0.08700
H1624       H  0.88972132  0.41783592  0.48663112     0.12300
H1625       H  0.86895452  0.31460569  0.56642230     0.12200
H1626       H  0.90056001  0.33140861  0.63344031     0.12000
H1627       H  0.92814406  0.37419611  0.67430341     0.12500
H1628       H  0.92202524  0.43383148  0.55202944     0.14500
C1629       C  0.53257306  0.25166860  0.25908533    -0.05600
C1630       C  0.53245323  0.26600215  0.30343170    -0.05500
C1631       C  0.55981931  0.27024624  0.32879694    -0.23600
C1632       C  0.58844206  0.26061892  0.31069923     0.18600
C1633       C  0.58974776  0.24705838  0.26603495     0.15800
C1634       C  0.56204763  0.24363959  0.23988730    -0.18700
C1635       C  0.61872451  0.23703627  0.24878113    -0.20500
C1636       C  0.64595340  0.24020319  0.27574822    -0.13100
C1637       C  0.64469371  0.25344943  0.32067016     0.03600
C1638       C  0.61567199  0.26411741  0.33712129    -0.25200
H1639       H  0.51118364  0.27480010  0.31845005     0.08700
H1640       H  0.55854968  0.28118643  0.36282513     0.12300
H1641       H  0.56339344  0.23451346  0.20469044     0.12200
H1642       H  0.62010452  0.22581676  0.21509668     0.12000
H1643       H  0.66765782  0.23133211  0.26214986     0.12500
H1644       H  0.61398156  0.27460773  0.37143911     0.14500
C1645       C  0.86177211  0.24618215  0.32732494    -0.05600
C1646       C  0.86196546  0.26373056  0.28529355    -0.05500
C1647       C  0.88912022  0.26663054  0.25791506    -0.23600
C1648       C  0.91674119  0.25199535  0.27186426     0.18600
C1649       C  0.91674491  0.23346490  0.31321070     0.15800
C1650       C  0.88935709  0.23064740  0.34064286    -0.18700
C1651       C  0.94420128  0.21830572  0.32645964    -0.20500
C1652       C  0.97160645  0.22245905  0.29998194    -0.13100
C1653       C  0.97277845  0.24265405  0.26017730     0.03600
C1654       C  0.94432572  0.25582800  0.24524035    -0.25200
H1655       H  0.84139932  0.27621741  0.27444230     0.08700
H1656       H  0.88868102  0.28093976  0.22621908     0.12300
H1657       H  0.88967161  0.21680829  0.37284138     0.12200
H1658       H  0.94452925  0.20323871  0.35740283     0.12000
H1659       H  0.99211570  0.20987491  0.31083619     0.12500
H1660       H  0.94344307  0.26914457  0.21271104     0.14500
C1661       C  0.76058761  0.36263968  0.32953527    -0.05600
C1662       C  0.78591282  0.38261993  0.34022567    -0.05500
C1663       C  0.78818104  0.41331524  0.32213102    -0.23600
C1664       C  0.76511133  0.42500292  0.29268527     0.18600
C1665       C  0.74005383  0.40493334  0.27995905     0.15800
C1666       C  0.73772489  0.37378533  0.29863649    -0.18700
C1667       C  0.71786297  0.41650818  0.24890906    -0.20500
C1668       C  0.72043914  0.44734365  0.23081941    -0.13100
C1669       C  0.74442122  0.46867665  0.24505624     0.03600
C1670       C  0.76695873  0.45641315  0.27575906    -0.25200
H1671       H  0.80347823  0.37479145  0.36460663     0.08700
H1672       H  0.80771610  0.42816321  0.33207858     0.12300
H1673       H  0.71768424  0.35895652  0.29092378     0.12200
H1674       H  0.69891990  0.40139396  0.23741239     0.12000
H1675       H  0.70401550  0.45340575  0.20392877     0.12500
H1676       H  0.78657008  0.47125793  0.28545984     0.14500
C1677       C  0.75429247  0.14008661  0.32390647    -0.05600
C1678       C  0.76105599  0.14432504  0.27598104    -0.05500
C1679       C  0.76390281  0.11817625  0.24639542    -0.23600
C1680       C  0.75949509  0.08710357  0.26349055     0.18600
C1681       C  0.75293140  0.08229453  0.31136504     0.15800
C1682       C  0.75054440  0.10858331  0.34115982    -0.18700
C1683       C  0.74843463  0.05127259  0.32854482    -0.20500
C1684       C  0.74981681  0.02527876  0.29854212    -0.13100
C1685       C  0.75652460  0.02933165  0.25036512     0.03600
C1686       C  0.76122248  0.06084765  0.23349559    -0.25200
H1687       H  0.76449410  0.16784294  0.26136414     0.08700
H1688       H  0.76982627  0.12222703  0.21006158     0.12300
H1689       H  0.74551607  0.10433164  0.37794533     0.12200
H1690       H  0.74309522  0.04709854  0.36525115     0.12000
H1691       H  0.74444695  0.00222360  0.31329451     0.12500
H1692       H  0.76569465  0.06490328  0.19649138     0.14500
O1693       O  0.74987203  0.69937547  0.33829234    -0.86800
O1694       O  0.74280066  0.69368675  0.60656983    -0.87000
O1695       O  0.79126996  0.65923466  0.48386600    -0.88600
O1696       O  0.69506332  0.66347214  0.46708215    -0.87400
O1697       O  0.65716657  0.70043057  0.47378579    -0.87000
O1698       O  0.83147899  0.69519693  0.47961602    -0.88400
O1699       O  0.73949290  0.65972433  0.54459001    -0.86800
O1700       O  0.74935127  0.66290434  0.39830722    -0.86400
Zr1701     Zr  0.74444304  0.68910297  0.47192797     2.84300
O1702       O  0.71361739  0.71926335  0.52148209    -1.08400
O1703       O  0.77724645  0.71894462  0.42298140    -1.09100
C1704       C  0.75067554  0.67039940  0.35458217     1.06300
C1705       C  0.74016658  0.66557871  0.58866860     1.06200
C1706       C  0.82023079  0.66704440  0.48626596     1.09200
C1707       C  0.66665004  0.67159025  0.47153808     1.07000
H1708       H  0.78719662  0.70354531  0.54162650     0.32600
O1709       O  0.77549985  0.71782511  0.52227071    -1.29300
H1710       H  0.70135676  0.70851586  0.40386004     0.32200
O1711       O  0.71457797  0.72137514  0.42336710    -1.31000
O1712       O  0.74805771  0.80269689  0.60926484    -0.86800
O1713       O  0.75392643  0.80798100  0.34171787    -0.88300
O1714       O  0.83382852  0.74312277  0.54925945    -0.86900
O1715       O  0.65685188  0.75302381  0.54767753    -0.86900
O1716       O  0.65853463  0.75658653  0.39847706    -0.86600
O1717       O  0.83558524  0.74757536  0.39772784    -0.86400
O1718       O  0.80048595  0.83492030  0.48942819    -0.86800
O1719       O  0.70089246  0.84055757  0.47781374    -0.86300
O1720       O  0.83735289  0.79668389  0.48205346    -0.87300
O1721       O  0.66077296  0.80443122  0.47850490    -0.86500
O1722       O  0.79775104  0.74443781  0.60903628    -0.86900
O1723       O  0.80007502  0.75378733  0.33847278    -0.86600
O1724       O  0.69476525  0.75578742  0.33887775    -0.86300
O1725       O  0.69205992  0.74915738  0.60776457    -0.86700
O1726       O  0.74951302  0.83951730  0.54965487    -0.87000
O1727       O  0.75698856  0.84184854  0.40384174    -0.88300
Zr1728     Zr  0.74540561  0.74869749  0.57276737     2.83100
Zr1729     Zr  0.74760984  0.75301197  0.37502784     2.83500
Zr1730     Zr  0.80881147  0.74754781  0.47365106     2.84100
Zr1731     Zr  0.68423779  0.75225711  0.47313482     2.83400
Zr1732     Zr  0.74949040  0.81227950  0.47582091     2.84200
O1733       O  0.71708224  0.78401653  0.42545076    -1.08900
O1734       O  0.77862541  0.77887373  0.52313091    -1.08400
C1735       C  0.74916063  0.83186257  0.59345281     1.06300
C1736       C  0.75793825  0.83590890  0.35977193     1.08900
C1737       C  0.82608911  0.74218785  0.59302508     1.06400
C1738       C  0.66391988  0.75145235  0.59147011     1.06800
C1739       C  0.66626468  0.75713166  0.35477403     1.06400
C1740       C  0.82823759  0.75089324  0.35406663     1.05900
C1741       C  0.82856401  0.82492137  0.49063052     1.06400
C1742       C  0.67178313  0.83295880  0.48083869     1.05900
H1743       H  0.79437070  0.79503761  0.40905787     0.32600
O1744       O  0.77992049  0.78162396  0.42648251    -1.30000
H1745       H  0.70381908  0.79503931  0.54233456     0.32600
O1746       O  0.71629759  0.78149731  0.52314932    -1.31400
N1747       N  0.97673907  0.54057571  0.59039136    -0.36900
N1748       N  0.94042578  0.99776870  0.64143380    -0.57500
N1749       N  0.98572308  0.95310839  0.60314256    -0.36900
N1750       N  0.52924470  0.00259906  0.58301984    -0.57500
C1751       C  0.95661691  0.55475105  0.61929803     0.26700
C1752       C  0.51058017  0.56232643  0.59190081     0.26700
C1753       C  0.96687566  0.93554639  0.63116075     0.26700
C1754       C  0.51461782  0.93712257  0.60601202     0.26700
C1755       C  0.91900121  0.51205785  0.63162999     0.35300
C1756       C  0.92287438  0.97146723  0.63513059     0.35300
C1757       C  0.54129225  0.52154847  0.55345799     0.35300
C1758       C  0.54182544  0.97828507  0.55979272     0.35300
C1759       C  0.96765184  0.58473880  0.62963285    -0.22200
C1760       C  0.50639493  0.59211225  0.61036270    -0.22200
C1761       C  0.98090808  0.90714595  0.64182692    -0.22200
C1762       C  0.51248116  0.90849702  0.63006534    -0.22200
C1763       C  0.89044439  0.49688829  0.62657188    -0.23300
C1764       C  0.89241430  0.97928998  0.62512795    -0.23300
C1765       C  0.55929602  0.51015776  0.51711297    -0.23300
C1766       C  0.55825063  0.98935371  0.52086625    -0.23300
C1767       C  0.92549869  0.54449245  0.62352445    -0.18600
C1768       C  0.53462821  0.55354689  0.56121535    -0.18600
C1769       C  0.53864531  0.94641659  0.57440697    -0.18600
C1770       C  0.93485094  0.94073781  0.63397700    -0.18600
H1771       H  0.95566691  0.60258807  0.64928551     0.14300
H1772       H  0.52205839  0.61229939  0.60754518     0.14300
H1773       H  0.97059062  0.88725543  0.66071146     0.14300
H1774       H  0.52983176  0.89029678  0.63185965     0.14300
H1775       H  0.86849294  0.50682981  0.61643459     0.12600
H1776       H  0.87311835  0.96360876  0.61728009     0.12600
H1777       H  0.56904540  0.52328466  0.48760437     0.12600
H1778       H  0.57035835  0.97567893  0.49494629     0.12600
H1779       H  0.97151378  0.52025825  0.57163025     0.25800
H1780       H  0.97847993  0.97245344  0.58343917     0.25800
O1781       O  0.50827308  0.94936039  0.84033875    -0.86800
O1782       O  0.51005543  0.94858580  0.11068194    -0.87000
O1783       O  0.56498223  0.91875261  0.97648482    -0.88600
O1784       O  0.96277322  0.90738238  0.98540243    -0.87400
O1785       O  0.92335437  0.94328433  0.98671975    -0.87000
O1786       O  0.59811913  0.96134388  0.98204324    -0.88400
O1787       O  0.51652277  0.91304631  0.05148156    -0.86800
O1788       O  0.51327499  0.91349902  0.90092857    -0.86400
Zr1789     Zr  0.51332796  0.93976898  0.97581397     2.84300
O1790       O  0.97748113  0.96691473  0.02034640    -1.08400
O1791       O  0.54049329  0.97431176  0.92574700    -1.09100
C1792       C  0.51142023  0.92076163  0.85703781     1.06300
C1793       C  0.51380674  0.92023968  0.09512035     1.06200
C1794       C  0.59196946  0.93148917  0.98212806     1.09200
C1795       C  0.93466768  0.91568508  0.99376594     1.07000
H1796       H  0.55482198  0.96204913  0.04385700     0.32600
O1797       O  0.54051352  0.97379502  0.02473726    -1.29300
H1798       H  0.96398590  0.95119703  0.90600618     0.32200
O1799       O  0.97658432  0.96588737  0.92348299    -1.31000
O1800       O  0.50426519  0.55725583  0.11011209    -0.86800
O1801       O  0.50186266  0.55678258  0.84144960    -0.88300
O1802       O  0.59354891  0.01192540  0.04880623    -0.86900
O1803       O  0.91820462  0.99400848  0.04716771    -0.86900
O1804       O  0.91424770  0.48833895  0.90325122    -0.86600
O1805       O  0.59264418  0.50993150  0.90186512    -0.86400
O1806       O  0.54729791  0.59629049  0.98210631    -0.86800
O1807       O  0.94035601  0.57877155  0.98988560    -0.86300
O1808       O  0.58735508  0.56117633  0.98478097    -0.87300
O1809       O  0.90753842  0.53568748  0.98807441    -0.86500
O1810       O  0.55895499  0.00629665  0.10986481    -0.86900
O1811       O  0.55716186  0.50352556  0.84275368    -0.86600
O1812       O  0.95005139  0.49363259  0.84349222    -0.86300
O1813       O  0.95357325  0.99937072  0.10655063    -0.86700
O1814       O  0.49885458  0.59323550  0.04977284    -0.87000
O1815       O  0.49896574  0.59307000  0.90036090    -0.88300
Zr1816     Zr  0.50665946  0.00143502  0.07415084     2.83100
Zr1817     Zr  0.50411634  0.50240159  0.87891900     2.83500
Zr1818     Zr  0.56539692  0.50862044  0.97668861     2.84100
Zr1819     Zr  0.93973418  0.48998637  0.97824700     2.83400
Zr1820     Zr  0.49945526  0.56601136  0.97531508     2.84200
O1821       O  0.96701552  0.52583467  0.92938493    -1.08900
O1822       O  0.53206169  0.53724458  0.02422779    -1.08400
C1823       C  0.50179478  0.58573575  0.09347339     1.06300
C1824       C  0.50011913  0.58576636  0.85672174     1.08900
C1825       C  0.58689194  0.01016954  0.09280095     1.06400
C1826       C  0.92533042  0.99669266  0.09068415     1.06800
C1827       C  0.92171926  0.48992997  0.85949147     1.06400
C1828       C  0.58545727  0.50671788  0.85834431     1.05900
C1829       C  0.57599464  0.58902259  0.98741085     1.06400
C1830       C  0.91327271  0.56523082  0.99446211     1.05900
H1831       H  0.54539924  0.55156876  0.90811104     0.32600
O1832       O  0.53285419  0.53725057  0.92710630    -1.30000
H1833       H  0.95255104  0.53565317  0.04744281     0.32600
O1834       O  0.96656112  0.52423928  0.02770959    -1.31400
N1835       N  0.76085197  0.80195039  0.12656676    -0.36900
N1836       N  0.70665383  0.76065497  0.12171208    -0.57500
N1837       N  0.74510800  0.70412152  0.12173203    -0.36900
N1838       N  0.79796367  0.74512002  0.12753886    -0.57500
C1839       C  0.73945448  0.82254082  0.11089532     0.26700
C1840       C  0.78902240  0.81347035  0.11286816     0.26700
C1841       C  0.71759833  0.69273267  0.10662354     0.26700
C1842       C  0.76748481  0.68552209  0.10360935     0.26700
C1843       C  0.69234576  0.78876239  0.12384708     0.35300
C1844       C  0.68397388  0.73832010  0.12487123     0.35300
C1845       C  0.81998436  0.76707888  0.13567090     0.35300
C1846       C  0.81181756  0.71700302  0.13135693     0.35300
C1847       C  0.75426519  0.84838071  0.08977428    -0.22200
C1848       C  0.78551803  0.84253878  0.09062336    -0.22200
C1849       C  0.72234559  0.66576643  0.08053000    -0.22200
C1850       C  0.75382605  0.66159467  0.07787095    -0.22200
C1851       C  0.66051285  0.78425909  0.12926904    -0.23300
C1852       C  0.65521300  0.75224550  0.13003591    -0.23300
C1853       C  0.84772571  0.75290354  0.14754705    -0.23300
C1854       C  0.84247709  0.72095767  0.14502635    -0.23300
C1855       C  0.70690276  0.81803893  0.11309306    -0.18600
C1856       C  0.81766835  0.79795655  0.11850284    -0.18600
C1857       C  0.79983601  0.69005930  0.10947052    -0.18600
C1858       C  0.68828416  0.70621231  0.11485973    -0.18600
H1859       H  0.74365981  0.86876917  0.07361820     0.14300
H1860       H  0.80341720  0.85773368  0.07534878     0.14300
H1861       H  0.70503486  0.65117752  0.06351371     0.14300
H1862       H  0.76508268  0.64321464  0.05844977     0.14300
H1863       H  0.64285020  0.80218609  0.13008077     0.12600
H1864       H  0.63262970  0.74061208  0.13114702     0.12600
H1865       H  0.87007014  0.76442488  0.15265690     0.12600
H1866       H  0.85995728  0.70292938  0.14784922     0.12600
H1867       H  0.75653721  0.78160303  0.14652241     0.25800
H1868       H  0.74793298  0.72256036  0.14515241     0.25800
C1869       C  0.49782902  0.75208264  0.22871527    -0.02800
C1870       C  0.74997415  0.50197177  0.22125093    -0.02800
C1871       C  0.49395935  0.75539185  0.71732415    -0.02800
C1872       C  0.75508009  0.49893137  0.73104510    -0.02800
C1873       C  0.61427749  0.01204857  0.12457654    -0.05600
C1874       C  0.61204495  0.00493611  0.17271318    -0.05500
C1875       C  0.63894536  0.00380685  0.20037092    -0.23600
C1876       C  0.66853789  0.00951893  0.18029145     0.18600
C1877       C  0.66799361  0.51829107  0.13521815     0.15800
C1878       C  0.64148097  0.51890048  0.10715070    -0.18700
C1879       C  0.69768471  0.52194959  0.11513728    -0.20500
C1880       C  0.72421256  0.51818056  0.14239743    -0.13100
C1881       C  0.72578156  0.00926557  0.18531971     0.03600
C1882       C  0.69589228  0.00625532  0.20664974    -0.25200
H1883       H  0.58967928  0.99942882  0.18870595     0.08700
H1884       H  0.63667746  0.99762844  0.23717674     0.12300
H1885       H  0.64450694  0.52278632  0.06979960     0.12200
H1886       H  0.70042392  0.52677223  0.07796809     0.12000
H1887       H  0.74658078  0.52100836  0.12527883     0.12500
H1888       H  0.69407715  0.99950557  0.24331489     0.14500
C1889       C  0.89800361  0.99795216  0.12306004    -0.05600
C1890       C  0.89215610  0.51508464  0.16474348    -0.05500
C1891       C  0.86493171  0.52148901  0.18998395    -0.23600
C1892       C  0.83668855  0.50625337  0.17900201     0.18600
C1893       C  0.84179282  0.98976680  0.13407554     0.15800
C1894       C  0.86933807  0.98471097  0.10877762    -0.18700
C1895       C  0.81369166  0.97612177  0.11960056    -0.20500
C1896       C  0.78641269  0.98047787  0.14530210    -0.13100
C1897       C  0.78571862  0.00018898  0.18484624     0.03600
C1898       C  0.80906397  0.51302734  0.20351307    -0.25200
H1899       H  0.91329370  0.52812248  0.17264758     0.08700
H1900       H  0.86585388  0.53882624  0.21750939     0.12300
H1901       H  0.86830942  0.97079504  0.07720873     0.12200
H1902       H  0.81291663  0.96134559  0.08892544     0.12000
H1903       H  0.76551681  0.96822701  0.13416321     0.12500
H1904       H  0.81042885  0.52948645  0.23205306     0.14500
C1905       C  0.51350142  0.89323397  0.12901829    -0.05600
C1906       C  0.99700849  0.89319261  0.17107459    -0.05500
C1907       C  0.99350712  0.86624539  0.20018923    -0.23600
C1908       C  0.00086266  0.83606482  0.18363186     0.18600
C1909       C  0.51690778  0.83622493  0.14220390     0.15800
C1910       C  0.52281421  0.86317519  0.11426440    -0.18700
C1911       C  0.52444656  0.80626847  0.12599655    -0.20500
C1912       C  0.51685508  0.77932918  0.15253842    -0.13100
C1913       C  0.50125416  0.78141266  0.19614057     0.03600
C1914       C  0.99612190  0.80851786  0.21159312    -0.25200
H1915       H  0.99011247  0.91590332  0.18426038     0.08700
H1916       H  0.98430595  0.86892869  0.23528640     0.12300
H1917       H  0.53337430  0.86047152  0.07999561     0.12200
H1918       H  0.53620710  0.80361797  0.09262683     0.12000
H1919       H  0.52415792  0.75682746  0.13918827     0.12500
H1920       H  0.98780053  0.81076647  0.24726509     0.14500
C1921       C  0.49528289  0.72121483  0.20003253    -0.05600
C1922       C  0.47262295  0.71925018  0.16450008    -0.05500
C1923       C  0.46858641  0.69199682  0.13819587    -0.23600
C1924       C  0.48712404  0.66570507  0.14642805     0.18600
C1925       C  0.00577626  0.66035258  0.18410681     0.15800
C1926       C  0.01100880  0.68874747  0.20839096    -0.18700
C1927       C  0.02042203  0.63216980  0.19754764    -0.20500
C1928       C  0.01588932  0.60440228  0.17182765    -0.13100
C1929       C  0.50293668  0.61241833  0.12635493     0.03600
C1930       C  0.48398640  0.63871100  0.11873294    -0.25200
H1931       H  0.45808699  0.73922316  0.15661792     0.08700
H1932       H  0.45115095  0.69165360  0.11097753     0.12300
H1933       H  0.02600131  0.68827597  0.23863659     0.12200
H1934       H  0.03592784  0.63178146  0.22727814     0.12000
H1935       H  0.02846012  0.58340068  0.18165125     0.12500
H1936       H  0.46708340  0.63829048  0.09072196     0.14500
C1937       C  0.68726704  0.84344762  0.09421193    -0.05600
C1938       C  0.68223760  0.87098497  0.11958702    -0.05500
C1939       C  0.66427088  0.89508229  0.10059300    -0.23600
C1940       C  0.65104658  0.89163838  0.05613753     0.18600
C1941       C  0.65609353  0.86382438  0.03047046     0.15800
C1942       C  0.67450296  0.84009623  0.04950895    -0.18700
C1943       C  0.64188857  0.85979440  0.98685510    -0.20500
C1944       C  0.62180855  0.88263600  0.96959910    -0.13100
C1945       C  0.61684976  0.91022185  0.99488698     0.03600
C1946       C  0.63194167  0.91498130  0.03760837    -0.25200
H1947       H  0.69220374  0.87367173  0.15396594     0.08700
H1948       H  0.66042032  0.91616937  0.12079366     0.12300
H1949       H  0.67870213  0.81878776  0.02994599     0.12200
H1950       H  0.64540021  0.83850646  0.96700221     0.12000
H1951       H  0.60963337  0.87854896  0.93709839     0.12500
H1952       H  0.62717108  0.93592311  0.05777880     0.14500
C1953       C  0.91546510  0.89432182  0.02220327    -0.05600
C1954       C  0.90692284  0.90517212  0.06656100    -0.05500
C1955       C  0.88927655  0.88635031  0.09681365    -0.23600
C1956       C  0.87920416  0.85660833  0.08260988     0.18600
C1957       C  0.88814562  0.84502580  0.03813336     0.15800
C1958       C  0.90710980  0.86380276  0.00838189    -0.18700
C1959       C  0.87661178  0.81567178  0.02359209    -0.20500
C1960       C  0.85482744  0.79924478  0.05142570    -0.13100
C1961       C  0.84519638  0.81159911  0.09453337     0.03600
C1962       C  0.85859719  0.83930990  0.11107302    -0.25200
H1963       H  0.91423819  0.92838096  0.07801482     0.08700
H1964       H  0.88267138  0.89548483  0.13066682     0.12300
H1965       H  0.91419014  0.85539776  0.97429582     0.12200
H1966       H  0.88307850  0.80632670  0.98981744     0.12000
H1967       H  0.84431833  0.77768631  0.03843496     0.12500
H1968       H  0.85084502  0.84865355  0.14428134     0.14500
C1969       C  0.82209638  0.67031277  0.08306645    -0.05600
C1970       C  0.84259193  0.68498157  0.05052467    -0.05500
C1971       C  0.86415173  0.66738850  0.02578287    -0.23600
C1972       C  0.86494897  0.63460628  0.03192198     0.18600
C1973       C  0.84358725  0.61943726  0.06314010     0.15800
C1974       C  0.82275869  0.63745026  0.08930836    -0.18700
C1975       C  0.84363993  0.58653233  0.06792266    -0.20500
C1976       C  0.86520294  0.56892361  0.04306179    -0.13100
C1977       C  0.88748764  0.58390700  0.01354309     0.03600
C1978       C  0.88703923  0.61681425  0.00786378    -0.25200
H1979       H  0.84204986  0.71028334  0.04457716     0.08700
H1980       H  0.88008633  0.67940367  0.00172156     0.12300
H1981       H  0.80697770  0.62601905  0.11423958     0.12200
H1982       H  0.82737063  0.57445170  0.09142699     0.12000
H1983       H  0.86537517  0.54359247  0.04876831     0.12500
H1984       H  0.90415142  0.62856159  0.98536918     0.14500
C1985       C  0.66111637  0.68669354  0.10254137    -0.05600
C1986       C  0.65194428  0.66152411  0.13203906    -0.05500
C1987       C  0.63293430  0.63740772  0.11502090    -0.23600
C1988       C  0.62344429  0.63814993  0.06816369     0.18600
C1989       C  0.63162186  0.66422166  0.03888585     0.15800
C1990       C  0.65004736  0.68863106  0.05660981    -0.18700
C1991       C  0.62220588  0.66483191  0.99193898    -0.20500
C1992       C  0.60445702  0.63990126  0.97423837    -0.13100
C1993       C  0.59674351  0.61399674  0.00310721     0.03600
C1994       C  0.60629271  0.61305698  0.04984360    -0.25200
H1995       H  0.66104394  0.65967362  0.16722487     0.08700
H1996       H  0.62675105  0.61759996  0.13781018     0.12300
H1997       H  0.65791216  0.70784351  0.03376559     0.12200
H1998       H  0.62842964  0.68459368  0.96910439     0.12000
H1999       H  0.59669146  0.64079732  0.93826050     0.12500
H2000       H  0.59971104  0.59305734  0.07212939     0.14500
C2001       C  0.78421444  0.49168010  0.76164317    -0.05600
C2002       C  0.78464648  0.98280129  0.80924983    -0.05500
C2003       C  0.81175646  0.97853958  0.83523765    -0.23600
C2004       C  0.84108153  0.98436933  0.81481354     0.18600
C2005       C  0.84133412  0.48997431  0.76878273     0.15800
C2006       C  0.81445062  0.49298402  0.74115393    -0.18700
C2007       C  0.87114906  0.49662523  0.75026239    -0.20500
C2008       C  0.89761776  0.49568006  0.77883345    -0.13100
C2009       C  0.89479131  0.48773738  0.82661483     0.03600
C2010       C  0.86486356  0.47972336  0.84454341    -0.25200
H2011       H  0.76258205  0.97853047  0.82672011     0.08700
H2012       H  0.80971878  0.97177350  0.87186677     0.12300
H2013       H  0.81697548  0.49885510  0.70424615     0.12200
H2014       H  0.87377627  0.50409254  0.71422395     0.12000
H2015       H  0.92006303  0.50215944  0.76387219     0.12500
H2016       H  0.86591404  0.97686392  0.87863635     0.14500
C2017       C  0.61255456  0.50547077  0.82513195    -0.05600
C2018       C  0.61503416  0.98234986  0.78941273    -0.05500
C2019       C  0.64255497  0.97651102  0.76446352    -0.23600
C2020       C  0.67044800  0.99248273  0.77543011     0.18600
C2021       C  0.66846169  0.51479719  0.81077211     0.15800
C2022       C  0.64114338  0.52009804  0.83694988    -0.18700
C2023       C  0.69662307  0.52949646  0.82284431    -0.20500
C2024       C  0.72386287  0.52371403  0.79755423    -0.13100
C2025       C  0.72447585  0.50187800  0.76056179     0.03600
C2026       C  0.69830280  0.98632443  0.75102029    -0.25200
H2027       H  0.59424436  0.96871083  0.78162350     0.08700
H2028       H  0.64215433  0.95900088  0.73716457     0.12300
H2029       H  0.64232445  0.53508166  0.86739657     0.12200
H2030       H  0.69756307  0.54585425  0.85166726     0.12000
H2031       H  0.74486793  0.53646006  0.80701490     0.12500
H2032       H  0.69728725  0.96993514  0.72238042     0.14500
C2033       C  0.49941290  0.61378443  0.82331416    -0.05600
C2034       C  0.00611390  0.60782213  0.78302698    -0.05500
C2035       C  0.00753724  0.63436584  0.75300821    -0.23600
C2036       C  0.00045252  0.66461521  0.76943184     0.18600
C2037       C  0.49485080  0.67160489  0.81157882     0.15800
C2038       C  0.49532292  0.64464754  0.84117357    -0.18700
C2039       C  0.49083817  0.70196243  0.82995779    -0.20500
C2040       C  0.49057262  0.72886954  0.80062890    -0.13100
C2041       C  0.49450125  0.72634365  0.75181493     0.03600
C2042       C  0.00108254  0.69114063  0.73903343    -0.25200
H2043       H  0.01185215  0.58495903  0.76916390     0.08700
H2044       H  0.01411044  0.63117961  0.71670855     0.12300
H2045       H  0.49245134  0.64794216  0.87849491     0.12200
H2046       H  0.48781414  0.70493976  0.86731957     0.12000
H2047       H  0.48682938  0.75149766  0.81654021     0.12500
H2048       H  0.00672541  0.68784396  0.70240411     0.14500
C2049       C  0.49123830  0.78885310  0.74058058    -0.05600
C2050       C  0.46860618  0.81132185  0.72674770    -0.05500
C2051       C  0.46830078  0.84204798  0.74459449    -0.23600
C2052       C  0.49152803  0.85248347  0.77503500     0.18600
C2053       C  0.01368595  0.82557652  0.78829672     0.15800
C2054       C  0.01323953  0.79428208  0.77170075    -0.21100
C2055       C  0.03708002  0.83569526  0.81866182    -0.20500
C2056       C  0.03675625  0.86611191  0.83706386    -0.13100
C2057       C  0.51454082  0.89300850  0.82561987     0.03600
C2058       C  0.49119753  0.88336116  0.79409407    -0.25200
H2059       H  0.45131594  0.80611400  0.70067802     0.08700
H2060       H  0.45005987  0.85787394  0.73377879     0.12300
H2061       H  0.03129887  0.77827300  0.78259329     0.12200
H2062       H  0.05528591  0.81976380  0.82924891     0.12000
H2063       H  0.05448205  0.87254280  0.86213030     0.12500
H2064       H  0.47206682  0.89896324  0.78660044     0.14500
C2065       C  0.85259727  0.73839201  0.62619089    -0.05600
C2066       C  0.85022438  0.74670290  0.67354488    -0.05500
C2067       C  0.87667427  0.74694476  0.70221562    -0.23600
C2068       C  0.90609516  0.73953729  0.68380498     0.18600
C2069       C  0.90847697  0.72969014  0.63705419     0.15800
C2070       C  0.88173718  0.72839889  0.60904243    -0.18700
C2071       C  0.93782715  0.72280354  0.61833052    -0.20500
C2072       C  0.96490053  0.72863221  0.64407061    -0.13100
C2073       C  0.96334742  0.74106846  0.68964716     0.03600
C2074       C  0.93334281  0.74346599  0.71042534    -0.25200
H2075       H  0.82822810  0.75421623  0.68793423     0.08700
H2076       H  0.87437036  0.75443616  0.73817623     0.12300
H2077       H  0.88404260  0.72111499  0.57295522     0.12200
H2078       H  0.93996863  0.71412582  0.58294931     0.12000
H2079       H  0.98698420  0.72334081  0.62793300     0.12500
H2080       H  0.93135442  0.75095623  0.74644291     0.14500
C2081       C  0.63682175  0.75181343  0.62433369    -0.05600
C2082       C  0.63479469  0.73075844  0.66262570    -0.05500
C2083       C  0.60694871  0.72726355  0.68831038    -0.23600
C2084       C  0.58060191  0.74490579  0.67640129     0.18600
C2085       C  0.58277713  0.76713344  0.63934686     0.15800
C2086       C  0.61077914  0.77047021  0.61361541    -0.18700
C2087       C  0.55675913  0.78526412  0.62819102    -0.20500
C2088       C  0.52861898  0.78086226  0.65267164    -0.13100
C2089       C  0.52518740  0.75777974  0.68865725     0.03600
C2090       C  0.55220363  0.74057695  0.70090598    -0.25200
H2091       H  0.65425069  0.71588933  0.67126468     0.08700
H2092       H  0.60579152  0.71014958  0.71681834     0.12300
H2093       H  0.61206688  0.78698749  0.58429975     0.12200
H2094       H  0.55813076  0.80290620  0.60039384     0.12000
H2095       H  0.50922195  0.79564914  0.64343555     0.12500
H2096       H  0.55186876  0.72426674  0.73030184     0.14500
C2097       C  0.73685362  0.63676376  0.61895481    -0.05600
C2098       C  0.71197892  0.61577313  0.60996122    -0.05500
C2099       C  0.71106856  0.58516852  0.62909442    -0.23600
C2100       C  0.73517130  0.57453359  0.65775910     0.18600
C2101       C  0.75993992  0.59552897  0.66823427     0.15800
C2102       C  0.76080548  0.62651206  0.64867267    -0.18700
C2103       C  0.78335332  0.58511267  0.69815123    -0.20500
C2104       C  0.78219614  0.55461065  0.71777502    -0.13100
C2105       C  0.75850574  0.53229822  0.70617437     0.03600
C2106       C  0.73475762  0.54332931  0.67615958    -0.25200
H2107       H  0.69358567  0.62281612  0.58650191     0.08700
H2108       H  0.69172820  0.56960920  0.62067590     0.12300
H2109       H  0.78060879  0.64200619  0.65486649     0.12200
H2110       H  0.80224868  0.60094883  0.70762227     0.12000
H2111       H  0.79957207  0.54962460  0.74371124     0.12500
H2112       H  0.71544783  0.52766862  0.66795758     0.14500
C2113       C  0.75480879  0.97104812  0.69761624    -0.05600
C2114       C  0.75890261  0.97442314  0.64873220    -0.05500
C2115       C  0.75795213  0.94808722  0.61936918    -0.23600
C2116       C  0.75376065  0.91735326  0.63781476     0.18600
C2117       C  0.75039632  0.91308475  0.68651300     0.15800
C2118       C  0.75087227  0.93974840  0.71590008    -0.18700
C2119       C  0.74696916  0.88215122  0.70489435    -0.20500
C2120       C  0.74688242  0.85573398  0.67530563    -0.13100
C2121       C  0.74993146  0.85953450  0.62646575     0.03600
C2122       C  0.75335248  0.89082800  0.60831150    -0.25200
H2123       H  0.76352436  0.99725393  0.63269395     0.08700
H2124       H  0.76105217  0.95177110  0.58200857     0.12300
H2125       H  0.74829597  0.93622953  0.75338261     0.12200
H2126       H  0.74445408  0.87834867  0.74231868     0.12000
H2127       H  0.74421741  0.83234724  0.69068181     0.12500
H2128       H  0.75590070  0.89475616  0.57091253     0.14500
C2129       C  0.90129982  0.56599989  0.60444083    -0.05600
C2130       C  0.87147840  0.56810962  0.62457444    -0.05500
C2131       C  0.84859341  0.58623052  0.60277926    -0.23600
C2132       C  0.85566501  0.60378292  0.56187398     0.18600
C2133       C  0.88598325  0.60298669  0.54280361     0.15800
C2134       C  0.90815885  0.58367746  0.56342018    -0.18700
C2135       C  0.89389499  0.62181190  0.50363541    -0.20500
C2136       C  0.87208474  0.64194547  0.48399091    -0.13100
C2137       C  0.84178616  0.64267233  0.50216049     0.03600
C2138       C  0.83342448  0.62303235  0.54057139    -0.25200
H2139       H  0.86574630  0.55538029  0.65669683     0.08700
H2140       H  0.82555463  0.58690392  0.61822022     0.12300
H2141       H  0.93089197  0.58226916  0.54702831     0.12200
H2142       H  0.91722268  0.62164760  0.48905892     0.12000
H2143       H  0.87895871  0.65730755  0.45498728     0.12500
H2144       H  0.81023392  0.62422202  0.55558023     0.14500
C2145       C  0.55409886  0.57811521  0.53739085    -0.05600
C2146       C  0.54089780  0.60370621  0.51321988    -0.05500
C2147       C  0.56000502  0.62684444  0.49183919    -0.23600
C2148       C  0.59245644  0.62408243  0.49330085     0.18600
C2149       C  0.60543094  0.59707694  0.51474629     0.15800
C2150       C  0.58639350  0.57511787  0.53795904    -0.18700
C2151       C  0.63741923  0.59271103  0.51398350    -0.20500
C2152       C  0.65680374  0.61616001  0.49566737    -0.13100
C2153       C  0.64465954  0.64493889  0.47907157     0.03600
C2154       C  0.61228966  0.64827734  0.47592702    -0.25200
H2155       H  0.51588044  0.60595566  0.51148021     0.08700
H2156       H  0.54948243  0.64694532  0.47470305     0.12300
H2157       H  0.59675518  0.55550864  0.55667589     0.12200
H2158       H  0.64756123  0.57167923  0.52914076     0.12000
H2159       H  0.68161421  0.61243903  0.49785165     0.12500
H2160       H  0.60269660  0.66996640  0.46210980     0.14500
C2161       C  0.65004254  0.85884684  0.49166232    -0.05600
C2162       C  0.66209674  0.88852500  0.50489730    -0.05500
C2163       C  0.64277884  0.91137659  0.52359620    -0.23600
C2164       C  0.61086669  0.90531611  0.52883107     0.18600
C2165       C  0.59805800  0.87647268  0.51296744     0.15800
C2166       C  0.61771020  0.85332507  0.49471904    -0.18700
C2167       C  0.56588980  0.87105953  0.51660198    -0.20500
C2168       C  0.54670693  0.89384193  0.53612793    -0.13100
C2169       C  0.55935675  0.92208794  0.55378427     0.03600
C2170       C  0.59162960  0.92752872  0.55007191    -0.25200
H2171       H  0.68681648  0.89369061  0.50295614     0.08700
H2172       H  0.65293913  0.93355104  0.53489173     0.12300
H2173       H  0.60795105  0.83073617  0.48441365     0.12200
H2174       H  0.55553718  0.84927596  0.50416970     0.12000
H2175       H  0.52185084  0.88938783  0.53742418     0.12500
H2176       H  0.60172190  0.94917159  0.56352296     0.14500
C2177       C  0.85167066  0.84663382  0.50901400    -0.05600
C2178       C  0.87809806  0.85586173  0.48318653    -0.05500
C2179       C  0.90024016  0.87586864  0.50326675    -0.23600
C2180       C  0.89646140  0.88566380  0.54974160     0.18600
C2181       C  0.87015444  0.87552420  0.57611555     0.15800
C2182       C  0.84765328  0.85655603  0.55517197    -0.18700
C2183       C  0.86679239  0.88446495  0.62297782    -0.20500
C2184       C  0.88900120  0.90417184  0.64333666    -0.13100
C2185       C  0.91444304  0.91529448  0.61675482     0.03600
C2186       C  0.91831711  0.90568136  0.57021459    -0.25200
H2187       H  0.88136775  0.84784465  0.44765705     0.08700
H2188       H  0.92039576  0.88338164  0.48278376     0.12300
H2189       H  0.82731329  0.84874031  0.57512851     0.12200
H2190       H  0.84678058  0.87664179  0.64354246     0.12000
H2191       H  0.88572964  0.91187393  0.67901851     0.12500
H2192       H  0.93781089  0.91476514  0.54951903     0.14500
C2193       C  0.52771561  0.75460229  0.25930289    -0.05600
C2194       C  0.52707370  0.76983888  0.30303099    -0.05500
C2195       C  0.55426128  0.77507625  0.32860678    -0.23600
C2196       C  0.58319023  0.76572481  0.31114122     0.18600
C2197       C  0.58496129  0.75222906  0.26644438     0.15800
C2198       C  0.55750432  0.74768853  0.24036163    -0.18700
C2199       C  0.61416208  0.74319560  0.24894911    -0.20500
C2200       C  0.64108949  0.74624237  0.27634830    -0.13100
C2201       C  0.63937905  0.75850868  0.32176131     0.03600
C2202       C  0.61026438  0.76914557  0.33810737    -0.25200
H2203       H  0.50554016  0.77848303  0.31740016     0.08700
H2204       H  0.55259584  0.78640068  0.36231221     0.12300
H2205       H  0.55933074  0.73841598  0.20532136     0.12200
H2206       H  0.61600737  0.73275519  0.21467440     0.12000
H2207       H  0.66295161  0.73776080  0.26277425     0.12500
H2208       H  0.60839144  0.77914553  0.37274661     0.14500
C2209       C  0.85482287  0.75202271  0.32019364    -0.05600
C2210       C  0.85733964  0.77572793  0.28534747    -0.05500
C2211       C  0.88497427  0.77980045  0.25900511    -0.23600
C2212       C  0.91062188  0.76014809  0.26688039     0.18600
C2213       C  0.90751934  0.73530354  0.30008922     0.15800
C2214       C  0.87985056  0.73141741  0.32637303    -0.18700
C2215       C  0.93243650  0.71510519  0.30750874    -0.20500
C2216       C  0.96071782  0.72022799  0.28416712    -0.13100
C2217       C  0.96543964  0.74571048  0.25224019     0.03600
C2218       C  0.93928870  0.76495175  0.24263453    -0.25200
H2219       H  0.83850119  0.79204078  0.28003711     0.08700
H2220       H  0.88656703  0.79887124  0.23340563     0.12300
H2221       H  0.87810501  0.71285572  0.35282235     0.12200
H2222       H  0.93023250  0.69543671  0.33201305     0.12000
H2223       H  0.97931296  0.70395168  0.29119273     0.12500
H2224       H  0.94063797  0.78318025  0.21584782     0.14500
C2225       C  0.76513101  0.86423816  0.32976115    -0.05600
C2226       C  0.78831567  0.88565291  0.34483416    -0.05500
C2227       C  0.79177292  0.91575259  0.32442026    -0.23600
C2228       C  0.77175718  0.92554365  0.28877627     0.18600
C2229       C  0.74923525  0.90390215  0.27194135     0.15800
C2230       C  0.74623390  0.87322469  0.29205437    -0.18700
C2231       C  0.72957332  0.91362318  0.23600764    -0.20500
C2232       C  0.73130973  0.94452135  0.21809132    -0.13100
C2233       C  0.75212558  0.96753930  0.23653559     0.03600
C2234       C  0.77346275  0.95676251  0.27050405    -0.25200
H2235       H  0.80315542  0.87942965  0.37393494     0.08700
H2236       H  0.80937618  0.93177838  0.33777005     0.12300
H2237       H  0.72803771  0.85722910  0.28043142     0.12200
H2238       H  0.71266418  0.89727461  0.22174203     0.12000
H2239       H  0.71645706  0.94980287  0.18876452     0.12500
H2240       H  0.79115206  0.97293304  0.28323307     0.14500
C2241       C  0.75319430  0.64258111  0.32256475    -0.05600
C2242       C  0.75812904  0.64592020  0.27403556    -0.05500
C2243       C  0.76013782  0.61911704  0.24551248    -0.23600
C2244       C  0.75694765  0.58839260  0.26480674     0.18600
C2245       C  0.75239998  0.58465839  0.31335965     0.15800
C2246       C  0.75080078  0.61150752  0.34173067    -0.18700
C2247       C  0.74866561  0.55413422  0.33274140    -0.20500
C2248       C  0.74841927  0.52743987  0.30417304    -0.13100
C2249       C  0.75282171  0.53037451  0.25532788     0.03600
C2250       C  0.75742311  0.56140202  0.23635613    -0.25200
H2251       H  0.76038409  0.66918560  0.25810336     0.08700
H2252       H  0.76375486  0.62244705  0.20817860     0.12300
H2253       H  0.74707935  0.60795593  0.37900420     0.12200
H2254       H  0.74499317  0.55092485  0.37008706     0.12000
H2255       H  0.74381293  0.50476008  0.32067810     0.12500
H2256       H  0.76060068  0.56448319  0.19889208     0.14500
loop_ 
_geom_bond_atom_site_label_1 
_geom_bond_atom_site_label_2 
_geom_bond_distance 
_geom_bond_site_symmetry_2 
_ccdc_geom_bond_type 
O1          Zr37   2.517       .  S
O1           C12   1.307       .  A
O2          Zr36   2.523       .  S
O2           C13   1.308       .  A
O3           Zr9   2.412       .  S
O3           C14   1.286       .  A
O4           Zr9   2.416       .  S
O4           C15   1.288       .  A
O5          Zr39   2.447       .  S
O5           C15   1.292       .  A
O6          Zr38   2.434       .  S
O6           C14   1.289       .  A
O7           Zr9   2.396       .  S
O7           C13   1.285       .  A
O8           Zr9   2.409       .  S
O8           C12   1.288       .  A
Zr9          O10   2.328       .  S
Zr9          O11   2.331       .  S
Zr9          O19   2.329       .  S
Zr9          O17   2.332       .  S
O10         Zr36   2.364       .  S
O10         Zr39   2.331       .  S
O11         Zr37   2.360       .  S
O11         Zr38   2.330       .  S
C12         C549   1.510       .  S
C13         C405   1.494       .  S
C14         C445   1.455       .  S
C15         C461   1.484       .  S
H16          O17   0.965       .  S
O17         Zr36   2.351       .  S
O17         Zr38   2.333       .  S
H18          O19   0.966       .  S
O19         Zr37   2.369       .  S
O19         Zr39   2.341       .  S
O20         Zr36   2.529       .  S
O20          C43   1.311       .  A
O21         Zr37   2.508       .  S
O21          C44   1.305       .  A
O22         Zr38   2.408       .  S
O22          C45   1.288       .  A
O23         Zr39   2.405       .  S
O23          C46   1.287       .  A
O24         Zr39   2.409       .  S
O24          C47   1.288       .  A
O25         Zr38   2.421       .  S
O25          C48   1.290       .  A
O26         Zr40   2.412       .  S
O26          C49   1.286       .  A
O27         Zr40   2.425       .  S
O27          C50   1.289       .  A
O28         Zr38   2.420       .  S
O28          C49   1.287       .  A
O29         Zr39   2.431       .  S
O29          C50   1.290       .  A
O30         Zr36   2.505       .  S
O30          C45   1.305       .  A
O31         Zr37   2.480       .  S
O31          C48   1.300       .  A
O32         Zr37   2.484       .  S
O32          C47   1.302       .  A
O33         Zr36   2.483       .  S
O33          C46   1.302       .  A
O34         Zr40   2.421       .  S
O34          C43   1.289       .  A
O35         Zr40   2.407       .  S
O35          C44   1.287       .  A
Zr36         O42   2.353       .  S
Zr36         O54   2.358       .  S
Zr37         O41   2.369       .  S
Zr37         O52   2.362       .  S
Zr38         O42   2.339       .  S
Zr38         O52   2.332       .  S
Zr39         O41   2.342       .  S
Zr39         O54   2.341       .  S
Zr40         O41   2.337       .  S
Zr40         O42   2.330       .  S
Zr40         O54   2.326       .  S
Zr40         O52   2.341       .  S
C43         C429   1.515       .  S
C44         C533   1.486       .  S
C45         C373   1.502       .  S
C46         C389   1.481       .  S
C47         C509   1.487       .  S
C48         C517   1.487       .  S
C49         C485   1.454       .  S
C50         C469   1.480       .  S
H51          O52   0.967       .  S
H53          O54   0.965       .  S
N55          H87   1.041       .  S
N55          C59   1.345       .  A
N55        C1188   1.348       .  A
N56          C64   1.352       .  A
N56         C627   1.356       .  A
N57          H88   1.038       .  S
N57          C61   1.345       .  A
N57        C1190   1.354       .  A
N58          C66   1.345       .  A
N58         C629   1.342       .  A
C59          C67   1.384       .  A
C59          C75   1.400       .  A
C60        N1183   1.351   1_455  A
C60          C76   1.418       .  A
C60          C68   1.389       .  A
C61          C69   1.387       .  A
C61          C78   1.409       .  A
C62        N1185   1.348   1_455  A
C62          C77   1.409       .  A
C62          C70   1.386       .  A
C63         N620   1.351   1_545  A
C63          C75   1.404       .  A
C63          C71   1.385       .  A
C64          C78   1.418       .  A
C64          C72   1.390       .  A
C65         N622   1.346       .  A
C65          C73   1.388       .  A
C65          C76   1.412       .  A
C66          C74   1.386       .  A
C66          C77   1.407       .  A
C67        C1196   1.379       .  A
C67          H79   1.083       .  S
C68        C1195   1.382   1_455  A
C68          H80   1.082       .  S
C69        C1198   1.380       .  A
C69          H81   1.081       .  S
C70        C1197   1.379   1_455  A
C70          H82   1.082       .  S
C71         C636   1.369   1_545  A
C71          H83   1.082       .  S
C72         C635   1.363       .  A
C72          H84   1.080       .  S
C73         C638   1.375   1_545  A
C73          H85   1.082       .  S
C74         C637   1.378       .  A
C74          H86   1.082       .  S
C75         C437   1.475       .  S
C76         C453   1.491       .  S
C77         C477   1.481       .  S
C78         C493   1.476       .  S
O89        Zr689   2.531       .  S
O89         C100   1.310       .  A
O90        Zr124   2.462   1_455  S
O90         C101   1.297       .  A
O91         Zr97   2.400       .  S
O91         C102   1.284       .  A
O92       Zr1225   2.430       .  S
O92         C103   1.288   1_556  A
O93        Zr691   2.396       .  S
O93         C103   1.284   1_556  A
O94        Zr690   2.456       .  S
O94         C102   1.294       .  A
O95         Zr97   2.438   1_554  S
O95         C101   1.293       .  A
O96         Zr97   2.428       .  S
O96         C100   1.290       .  A
Zr97       O1220   2.401   1_455  S
Zr97         O99   2.336       .  S
Zr97        O105   2.332   1_556  S
Zr97       O1226   2.333   1_456  S
Zr97       O1235   2.334   1_455  S
O98       Zr1225   2.329   1_554  S
O98       Zr1252   2.343       .  S
O98        Zr691   2.326   1_554  S
O99        Zr689   2.360       .  S
O99        Zr690   2.328       .  S
C100        C365   1.508       .  S
C101        C213   1.488       .  S
C102        C253   1.466   1_556  S
C103        C261   1.454       .  S
H104        O105   0.965       .  S
O105       Zr124   2.348   1_455  S
O105       Zr690   2.334   1_554  S
H106        O107   0.966       .  S
O107      Zr1225   2.343       .  S
O107      Zr1817   2.369       .  S
O107       Zr691   2.332       .  S
O108       Zr688   2.459       .  S
O108        C131   1.297       .  A
O109       Zr125   2.525   1_545  S
O109        C132   1.310       .  A
O110       Zr690   2.384   1_554  S
O110        C133   1.283       .  A
O111       Zr691   2.425   1_554  S
O111        C134   1.290       .  A
O112       Zr127   2.431       .  S
O112        C135   1.293       .  A
O113       Zr126   2.423       .  S
O113        C136   1.291       .  A
O114       Zr128   2.406       .  S
O114        C137   1.284       .  A
O115      Zr1256   2.444       .  S
O115        C138   1.293       .  A
O116       Zr126   2.430       .  S
O116        C137   1.290       .  A
O117       Zr127   2.413   1_545  S
O117        C138   1.287       .  A
O118       Zr124   2.496   1_455  S
O118        C133   1.303       .  A
O119       Zr125   2.519   1_545  S
O119        C136   1.309       .  A
O120      Zr1253   2.484   1_565  S
O120        C135   1.302       .  A
O121      Zr1252   2.508       .  S
O121        C134   1.305       .  A
O122       Zr128   2.430   1_554  S
O122        C131   1.291       .  A
O123       Zr128   2.401   1_655  S
O123        C132   1.286   1_655  A
Zr124       O672   2.474       .  S
Zr124      O1249   2.483       .  S
Zr124      O1226   2.362       .  S
Zr124       O694   2.344   1_655  S
Zr124      O1834   2.342       .  S
Zr125       O653   2.529       .  S
Zr125      O1248   2.493   1_455  S
Zr125       O140   2.366   1_565  S
Zr125       O663   2.364       .  S
Zr125      O1799   2.373   1_455  S
Zr125      O1257   2.377   1_465  S
Zr126       O658   2.430   1_545  S
Zr126       O674   2.420   1_556  S
Zr126       O130   2.330   1_556  S
Zr126       O140   2.337       .  S
Zr126       O663   2.342   1_545  S
Zr126       O669   2.338   1_546  S
Zr127       O657   2.435       .  S
Zr127       O675   2.431   1_556  S
Zr127       O129   2.347   1_565  S
Zr127       O142   2.338   1_566  S
Zr127       O662   2.323   1_556  S
Zr127       O671   2.333       .  S
Zr128      O1243   2.426   1_455  S
Zr128       O130   2.336   1_556  S
Zr128       O140   2.347       .  S
Zr128      O1257   2.335   1_455  S
Zr128      O1270   2.322   1_456  S
O129      Zr1253   2.369       .  S
O129      Zr1256   2.342       .  S
O130       Zr688   2.357       .  S
C131        C237   1.481       .  S
C132        C341   1.507       .  S
C133        C181   1.492       .  S
C134        C197   1.504       .  S
C135        C317   1.499       .  S
C136        C325   1.508       .  S
C137        C301   1.455       .  S
C138        C285   1.469   1_556  S
H139        O140   0.966       .  S
H141        O142   0.963       .  S
O142      Zr1816   2.338       .  S
O142      Zr1256   2.331   1_554  S
N143        H175   1.042       .  S
N143        C148   1.354       .  A
N143        C147   1.352       .  A
N144        C151   1.349       .  A
N144        C152   1.349       .  A
N145        H176   1.043       .  S
N145        C150   1.353       .  A
N145        C149   1.346       .  A
N146        C153   1.341       .  A
N146        C154   1.344       .  A
C147        C155   1.387       .  A
C147        C163   1.414       .  A
C148        C164   1.416       .  A
C148        C156   1.388       .  A
C149        C157   1.388       .  A
C149        C166   1.406       .  A
C150        C165   1.408       .  A
C150        C158   1.387       .  A
C151        C163   1.410       .  A
C151        C159   1.388       .  A
C152        C166   1.404       .  A
C152        C160   1.384       .  A
C153        C161   1.386       .  A
C153        C164   1.398       .  A
C154        C162   1.386       .  A
C154        C165   1.400       .  A
C155        C156   1.372       .  A
C155        H167   1.082       .  S
C156        H168   1.081       .  S
C157        C158   1.371       .  A
C157        H169   1.082       .  S
C158        H170   1.082       .  S
C159        C160   1.373       .  A
C159        H171   1.083       .  S
C160        H172   1.082       .  S
C161        C162   1.371       .  A
C161        H173   1.081       .  S
C162        H174   1.083       .  S
C163        C245   1.483       .  S
C164        C269   1.477       .  S
C165        C277   1.480       .  S
C166        C293   1.468       .  S
C177        C221   1.552       .  S
C177        C229   1.550       .  S
C177        C501   1.555       .  S
C177       C1653   1.561   1_455  S
C178        C557   1.566       .  S
C178        C753   1.564       .  S
C178        C769   1.566   1_545  S
C178       C1105   1.574   1_545  S
C179        C349   1.562       .  S
C179        C357   1.582       .  S
C179        C397   1.556   1_655  S
C179       C1509   1.559       .  S
C180        C309   1.566       .  S
C180        C333   1.568   1_565  S
C180        C413   1.570   1_565  S
C180        C985   1.561       .  S
C181        C182   1.404       .  A
C181        C750   1.416       .  A
C182        C183   1.407       .  A
C182        H191   1.083       .  S
C183        C184   1.410       .  A
C183        H192   1.083       .  S
C184        C190   1.405       .  A
C184        C749   1.405       .  A
C185        C187   1.404       .  A
C185        C186   1.406       .  A
C185        C748   1.407       .  A
C186        C745   1.416       .  A
C186        H193   1.084       .  S
C187        C188   1.401       .  A
C187        H194   1.083       .  S
C188        C753   1.410       .  A
C188        H195   1.080       .  S
C189        C190   1.424       .  A
C189        C752   1.409       .  A
C189        C742   1.558       .  S
C190        H196   1.084       .  S
C197        C202   1.414       .  A
C197        C762   1.408       .  A
C198        C199   1.409       .  A
C198        C761   1.407   1_545  A
C198        H207   1.083       .  S
C199        C200   1.409       .  A
C199        H208   1.083       .  S
C200        C206   1.418       .  A
C200        C765   1.410   1_545  A
C201        C203   1.401       .  A
C201        C202   1.406       .  A
C201        C764   1.408       .  A
C202        H209   1.084       .  S
C203        C204   1.397       .  A
C203        H210   1.084       .  S
C204        C205   1.411       .  A
C204        H211   1.083       .  S
C205        C770   1.428       .  A
C205        C742   1.563       .  S
C206        C769   1.425   1_545  A
C206        H212   1.082       .  S
C213        C218   1.407       .  A
C213       C1342   1.407   1_455  A
C214        C215   1.412       .  A
C214       C1341   1.409       .  A
C214        H223   1.083       .  S
C215        C216   1.412       .  A
C215        H224   1.083       .  S
C216        C222   1.415       .  A
C216       C1345   1.407       .  A
C217        C219   1.398       .  A
C217        C218   1.402       .  A
C217       C1344   1.410   1_455  A
C218        H225   1.084       .  S
C219        C220   1.394       .  A
C219        H226   1.084       .  S
C220        C221   1.413       .  A
C220        H227   1.082       .  S
C221       C1350   1.419   1_455  A
C222       C1349   1.425       .  A
C222        H228   1.083       .  S
C229        C230   1.414   1_455  A
C229       C1362   1.415       .  A
C230        C231   1.395       .  A
C230        H239   1.082       .  S
C231        C232   1.399       .  A
C231        H240   1.084       .  S
C232        C238   1.404       .  A
C232       C1361   1.412   1_655  A
C233        C235   1.407       .  A
C233        C234   1.413       .  A
C233       C1360   1.411       .  A
C234       C1357   1.420       .  A
C234        H241   1.082       .  S
C235        C236   1.405       .  A
C235        H242   1.083       .  S
C236       C1365   1.406       .  A
C236        H243   1.083       .  S
C237        C238   1.407   1_455  A
C237       C1364   1.404       .  A
C238        H244   1.082       .  S
C245        C246   1.403       .  A
C245        C250   1.403       .  A
C246        C247   1.398       .  A
C246        H255   1.082       .  S
C247        C248   1.404       .  A
C247        H256   1.084       .  S
C248        C254   1.403       .  A
C248        C249   1.415       .  A
C249        C251   1.400       .  A
C249        C250   1.397       .  A
C250        H257   1.085       .  S
C251        C252   1.393   1_554  A
C251        H258   1.084   1_554  S
C252        C253   1.404   1_556  A
C252        H259   1.084       .  S
C253        C254   1.404       .  A
C254        H260   1.085       .  S
C261        C262   1.404       .  A
C261        C266   1.398       .  A
C262        C263   1.383       .  A
C262        H271   1.082       .  S
C263        C264   1.393       .  A
C263        H272   1.084       .  S
C264        C270   1.393       .  A
C264        C265   1.420       .  A
C265        C267   1.399       .  A
C265        C266   1.404       .  A
C266        H273   1.084   1_554  S
C267        C268   1.395       .  A
C267        H274   1.084       .  S
C268        C269   1.408       .  A
C268        H275   1.083       .  S
C269        C270   1.392       .  A
C270        H276   1.085       .  S
C277        C278   1.406       .  A
C277        C282   1.398       .  A
C278        C279   1.393       .  A
C278        H287   1.083       .  S
C279        C280   1.399       .  A
C279        H288   1.084       .  S
C280        C286   1.402       .  A
C280        C281   1.418       .  A
C281        C283   1.396       .  A
C281        C282   1.399       .  A
C282        H289   1.085       .  S
C283        C284   1.390       .  A
C283        H290   1.084       .  S
C284        C285   1.409       .  A
C284        H291   1.083       .  S
C285        C286   1.400       .  A
C286        H292   1.084   1_554  S
C293        C294   1.400       .  A
C293        C298   1.404       .  A
C294        C295   1.388       .  A
C294        H303   1.083       .  S
C295        C296   1.399       .  A
C295        H304   1.084       .  S
C296        C302   1.388       .  A
C296        C297   1.414       .  A
C297        C299   1.406   1_554  A
C297        C298   1.400       .  A
C298        H305   1.084       .  S
C299        C300   1.401       .  A
C299        H306   1.084       .  S
C300        C301   1.403       .  A
C300        H307   1.083       .  S
C301        C302   1.396   1_556  A
C302        H308   1.086       .  S
C309        C314   1.424       .  A
C309        C874   1.412       .  A
C310        C311   1.402       .  A
C310        C873   1.413       .  A
C310        H319   1.080       .  S
C311        C312   1.404       .  A
C311        H320   1.084       .  S
C312        C882   1.409       .  A
C312        C877   1.407       .  A
C313        C315   1.408   1_565  A
C313        C314   1.414       .  A
C313        C876   1.408       .  A
C314        H321   1.084   1_565  S
C315        C316   1.406       .  A
C315        H322   1.081       .  S
C316        C317   1.407   1_545  A
C316        H323   1.083       .  S
C317        C318   1.414       .  A
C318        C876   1.408       .  A
C318        H888   1.084       .  S
H324        C882   1.084       .  S
C325        C330   1.417       .  A
C325        C890   1.407   1_545  A
C326        C327   1.407       .  A
C326        C889   1.405       .  A
C326        H335   1.083       .  S
C327        C328   1.408       .  A
C327        H336   1.083       .  S
C328        C334   1.418       .  A
C328        C893   1.410       .  A
C329        C331   1.402       .  A
C329        C330   1.411       .  A
C329        C892   1.409   1_545  A
C330        H337   1.084       .  S
C331        C332   1.399       .  A
C331        H338   1.084       .  S
C332        C333   1.412       .  A
C332        H339   1.082       .  S
C333        C898   1.427   1_545  A
C334        C897   1.424       .  A
C334        H340   1.081       .  S
C341        C346   1.423   1_455  A
C341       C1470   1.405       .  A
C342        C343   1.412       .  A
C342       C1469   1.409       .  A
C342        H351   1.083       .  S
C343        C344   1.410       .  A
C343        H352   1.082       .  S
C344        C350   1.417       .  A
C344       C1473   1.406       .  A
C345        C347   1.408       .  A
C345        C346   1.411       .  A
C345       C1472   1.406   1_655  A
C346        H353   1.084       .  S
C347        C348   1.405       .  A
C347        H354   1.083       .  S
C348        C349   1.408       .  A
C348        H355   1.080       .  S
C349       C1478   1.427   1_655  A
C350       C1477   1.427       .  A
C350        H356   1.084       .  S
C357        C358   1.422       .  A
C357       C1490   1.422   1_655  A
C358        C359   1.402       .  A
C358        H367   1.079       .  S
C359        C360   1.396       .  A
C359        H368   1.077       .  S
C360        C366   1.425       .  A
C360       C1489   1.413   1_655  A
C361        C363   1.401       .  A
C361        C362   1.417       .  A
C361       C1488   1.414       .  A
C362       C1485   1.417       .  A
C362        H369   1.084       .  S
C363        C364   1.400       .  A
C363        H370   1.083       .  S
C364       C1493   1.408       .  A
C364        H371   1.084       .  S
C365        C366   1.411   1_455  A
C365       C1492   1.412       .  A
C366        H372   1.084       .  S
C373        C374   1.407       .  A
C373        C378   1.416       .  A
C374        C375   1.411       .  A
C374        H383   1.083       .  S
C375        C376   1.411       .  A
C375        H384   1.083       .  S
C376        C382   1.413       .  A
C376        C377   1.406       .  A
C377        C379   1.401       .  A
C377        C378   1.402       .  A
C378        H385   1.084       .  S
C379        C380   1.397       .  A
C379        H386   1.084       .  S
C380        C381   1.412       .  A
C380        H387   1.079       .  S
C381        C382   1.426       .  A
C381       C1307   1.566       .  S
C382        H388   1.084       .  S
C389        C390   1.402       .  A
C389        C394   1.412       .  A
C390        C391   1.401       .  A
C390        H399   1.083       .  S
C391        C392   1.407       .  A
C391        H400   1.083       .  S
C392        C398   1.406       .  A
C392        C393   1.409       .  A
C393        C395   1.402       .  A
C393        C394   1.404       .  A
C394        H401   1.085       .  S
C395        C396   1.399       .  A
C395        H402   1.084       .  S
C396        C397   1.412       .  A
C396        H403   1.083       .  S
C397        C398   1.420       .  A
C398        H404   1.081       .  S
C405        C406   1.411       .  A
C405        C410   1.408       .  A
C406        C407   1.398       .  A
C406        H415   1.082       .  S
C407        C408   1.400       .  A
C407        H416   1.084       .  S
C408        C414   1.416       .  A
C408        C409   1.415       .  A
C409        C411   1.398       .  A
C409        C410   1.420       .  A
C410        H417   1.084       .  S
C411        C412   1.402       .  A
C411        H418   1.084       .  S
C412        C413   1.422       .  A
C412        H419   1.080       .  S
C413        C414   1.416       .  A
C414        H420   1.084       .  S
C421        C422   1.412       .  A
C421        C426   1.427       .  A
C421        C744   1.570       .  S
C422        C423   1.406       .  A
C422        H431   1.080       .  S
C423        C424   1.406       .  A
C423        H432   1.083       .  S
C424        C430   1.415       .  A
C424        C425   1.407       .  A
C425        C427   1.411       .  A
C425        C426   1.420       .  A
C426        H433   1.084       .  S
C427        C428   1.412       .  A
C427        H434   1.083       .  S
C428        C429   1.407       .  A
C428        H435   1.083       .  S
C429        C430   1.422       .  A
C430        H436   1.084       .  S
C437        C438   1.401       .  A
C437        C442   1.404       .  A
C438        C439   1.397       .  A
C438        H447   1.083       .  S
C439        C440   1.405       .  A
C439        H448   1.084       .  S
C440        C446   1.395       .  A
C440        C441   1.413       .  A
C441        C443   1.405       .  A
C441        C442   1.395       .  A
C442        H449   1.085       .  S
C443        C444   1.396       .  A
C443        H450   1.084       .  S
C444        C445   1.398       .  A
C444        H451   1.083       .  S
C445        C446   1.403       .  A
C446        H452   1.086       .  S
C453        C454   1.406       .  A
C453        C458   1.405       .  A
C454        C455   1.401       .  A
C454        H463   1.083       .  S
C455        C456   1.404       .  A
C455        H464   1.083       .  S
C456        C462   1.407       .  A
C456        C457   1.412       .  A
C457        C459   1.397       .  A
C457        C458   1.396       .  A
C458        H465   1.085       .  S
C459        C460   1.391       .  A
C459        H466   1.084       .  S
C460        C461   1.409       .  A
C460        H467   1.083       .  S
C461        C462   1.409       .  A
C462        H468   1.084       .  S
C469        C470   1.408       .  A
C469        C474   1.409       .  A
C470        C471   1.389       .  A
C470        H479   1.083       .  S
C471        C472   1.396       .  A
C471        H480   1.084       .  S
C472        C478   1.397       .  A
C472        C473   1.415       .  A
C473        C475   1.403       .  A
C473        C474   1.406       .  A
C474        H481   1.084       .  S
C475        C476   1.399       .  A
C475        H482   1.084       .  S
C476        C477   1.406       .  A
C476        H483   1.083       .  S
C477        C478   1.398       .  A
C478        H484   1.085       .  S
C485        C486   1.400       .  A
C485        C490   1.401       .  A
C486        C487   1.395       .  A
C486        H495   1.083       .  S
C487        C488   1.404       .  A
C487        H496   1.084       .  S
C488        C494   1.394       .  A
C488        C489   1.413       .  A
C489        C491   1.402       .  A
C489        C490   1.393       .  A
C490        H497   1.086       .  S
C491        C492   1.394       .  A
C491        H498   1.084       .  S
C492        C493   1.402       .  A
C492        H499   1.083       .  S
C493        C494   1.405       .  A
C494        H500   1.085       .  S
C501        C502   1.411       .  A
C501        C506   1.424       .  A
C502        C503   1.395       .  A
C502        H511   1.082       .  S
C503        C504   1.399       .  A
C503        H512   1.084       .  S
C504        C510   1.400       .  A
C504        C505   1.408       .  A
C505        C507   1.410       .  A
C505        C506   1.412       .  A
C506        H513   1.082       .  S
C507        C508   1.407       .  A
C507        H514   1.082       .  S
C508        C509   1.405       .  A
C508        H515   1.083       .  S
C509        C510   1.410       .  A
C510        H516   1.085       .  S
C517        C518   1.405       .  A
C517        C522   1.410       .  A
C518        C519   1.405       .  A
C518        H527   1.083       .  S
C519        C520   1.408       .  A
C519        H528   1.083       .  S
C520        C526   1.410       .  A
C520        C521   1.409       .  A
C521        C523   1.401       .  A
C521        C522   1.404       .  A
C522        H529   1.085       .  S
C523        C524   1.398       .  A
C523        H530   1.084       .  S
C524        C525   1.412       .  A
C524        H531   1.083       .  S
C525        C526   1.422       .  A
C525       C1305   1.556       .  S
C526        H532   1.082       .  S
C533        C534   1.409       .  A
C533        C538   1.404       .  A
C534        C535   1.400       .  A
C534        H543   1.084       .  S
C535        C536   1.401       .  A
C535        H544   1.084       .  S
C536        C542   1.414       .  A
C536        C537   1.415       .  A
C537        C539   1.395       .  A
C537        C538   1.415       .  A
C538        H545   1.084       .  S
C539        C540   1.397       .  A
C539        H546   1.083       .  S
C540        C541   1.423       .  A
C540        H547   1.079       .  S
C541        C542   1.415       .  A
C541        C742   1.570       .  S
C542        H548   1.083       .  S
C549        C550   1.408       .  A
C549        C554   1.419       .  A
C550        C551   1.415       .  A
C550        H559   1.083       .  S
C551        C552   1.414       .  A
C551        H560   1.084       .  S
C552        C558   1.419       .  A
C552        C553   1.406       .  A
C553        C555   1.404       .  A
C553        C554   1.407       .  A
C554        H561   1.084       .  S
C555        C556   1.400       .  A
C555        H562   1.084       .  S
C556        C557   1.410       .  A
C556        H563   1.079       .  S
C557        C558   1.430       .  A
C558        H564   1.084       .  S
O565       Zr601   2.504       .  S
O565        C576   1.306       .  A
O566       Zr600   2.507       .  S
O566        C577   1.305       .  A
O567       Zr573   2.436       .  S
O567        C578   1.290       .  A
O568       Zr573   2.410       .  S
O568        C579   1.287       .  A
O569       Zr603   2.437       .  S
O569        C579   1.291       .  A
O570       Zr602   2.424       .  S
O570        C578   1.288       .  A
O571       Zr573   2.430       .  S
O571        C577   1.291       .  A
O572       Zr573   2.423       .  S
O572        C576   1.291       .  A
Zr573       O574   2.338       .  S
Zr573       O575   2.337       .  S
Zr573       O583   2.347       .  S
Zr573       O581   2.324       .  S
O574       Zr600   2.359       .  S
O574       Zr603   2.340       .  S
O575       Zr601   2.374       .  S
O575       Zr602   2.328       .  S
C576       C1113   1.504       .  S
C577        C969   1.495       .  S
C578       C1009   1.464       .  S
C579       C1025   1.476       .  S
H580        O581   0.965       .  S
O581       Zr600   2.362       .  S
O581       Zr602   2.337       .  S
H582        O583   0.966       .  S
O583       Zr601   2.374       .  S
O583       Zr603   2.345       .  S
O584       Zr600   2.517       .  S
O584        C607   1.308       .  A
O585       Zr601   2.534       .  S
O585        C608   1.310       .  A
O586       Zr602   2.417       .  S
O586        C609   1.289       .  A
O587       Zr603   2.421       .  S
O587        C610   1.289       .  A
O588       Zr603   2.419       .  S
O588        C611   1.289       .  A
O589       Zr602   2.438       .  S
O589        C612   1.293       .  A
O590       Zr604   2.412       .  S
O590        C613   1.285       .  A
O591       Zr604   2.417       .  S
O591        C614   1.288       .  A
O592       Zr602   2.419       .  S
O592        C613   1.287       .  A
O593       Zr603   2.439       .  S
O593        C614   1.291       .  A
O594       Zr600   2.492       .  S
O594        C609   1.303       .  A
O595       Zr601   2.492       .  S
O595        C612   1.303       .  A
O596       Zr601   2.514       .  S
O596        C611   1.308       .  A
O597       Zr600   2.510       .  S
O597        C610   1.307       .  A
O598       Zr604   2.403       .  S
O598        C607   1.285       .  A
O599       Zr604   2.384       .  S
O599        C608   1.282       .  A
Zr600       O606   2.351       .  S
Zr600       O618   2.353       .  S
Zr601       O605   2.368       .  S
Zr601       O616   2.363       .  S
Zr602       O606   2.334       .  S
Zr602       O616   2.331       .  S
Zr603       O605   2.347       .  S
Zr603       O618   2.341       .  S
Zr604       O605   2.341       .  S
Zr604       O606   2.319       .  S
Zr604       O618   2.326       .  S
Zr604       O616   2.335       .  S
C607        C993   1.504       .  S
C608       C1097   1.493       .  S
C609        C937   1.498       .  S
C610        C953   1.499       .  S
C611       C1073   1.508       .  S
C612       C1081   1.500       .  S
C613       C1049   1.450       .  S
C614       C1033   1.479       .  S
H615        O616   0.966       .  S
H617        O618   0.964       .  S
N619        H651   1.041       .  S
N619       C1752   1.347       .  A
N619        C623   1.347       .  A
N620        C628   1.348       .  A
N621        H652   1.041       .  S
N621       C1754   1.352       .  A
N621        C625   1.347       .  A
N622        C630   1.347   1_545  A
C623        C631   1.386       .  A
C623        C639   1.404       .  A
C624       N1747   1.351   1_455  A
C624        C640   1.415       .  A
C624        C632   1.389   1_455  A
C625        C633   1.385       .  A
C625        C642   1.406       .  A
C626       N1749   1.349   1_455  A
C626        C641   1.410       .  A
C626        C634   1.387       .  A
C627        C639   1.412       .  A
C627        C635   1.384       .  A
C628        C642   1.410       .  A
C628        C636   1.390       .  A
C629        C637   1.388       .  A
C629        C640   1.410       .  A
C630        C638   1.385       .  A
C630        C641   1.407       .  A
C631       C1760   1.379       .  A
C631        H643   1.083       .  S
C632       C1759   1.382       .  A
C632        H644   1.082   1_655  S
C633       C1762   1.379       .  A
C633        H645   1.081       .  S
C634       C1761   1.379   1_455  A
C634        H646   1.082       .  S
C635        H647   1.081       .  S
C636        H648   1.082       .  S
C637        H649   1.082       .  S
C638        H650   1.082       .  S
C639       C1001   1.489       .  S
C640       C1017   1.484       .  S
C641       C1041   1.483       .  S
C642       C1057   1.471       .  S
O653        C664   1.309       .  A
O654       Zr688   2.491   1_565  S
O654        C665   1.302       .  A
O655       Zr661   2.420       .  S
O655        C666   1.287       .  A
O656      Zr1789   2.381       .  S
O656        C667   1.279       .  A
O657        C667   1.290       .  A
O658        C666   1.289       .  A
O659       Zr661   2.423   1_554  S
O659        C665   1.290       .  A
O660       Zr661   2.410       .  S
O660        C664   1.288       .  A
Zr661      O1784   2.419   1_455  S
Zr661      O1790   2.328   1_456  S
Zr661       O663   2.338       .  S
Zr661      O1799   2.341   1_455  S
Zr661       O669   2.333   1_556  S
O662      Zr1789   2.332   1_554  S
O662      Zr1816   2.349   1_565  S
C664        C929   1.500       .  S
C665        C777   1.499       .  S
C666        C817   1.452   1_556  S
C667        C825   1.443   1_556  S
H668        O669   0.964       .  S
O669       Zr688   2.339   1_565  S
H670        O671   0.965       .  S
O671      Zr1789   2.341       .  S
O671      Zr1253   2.373   1_565  S
O672        C695   1.299       .  A
O673       Zr689   2.526       .  S
O673        C696   1.311   1_455  A
O674        C697   1.290       .  A
O675        C698   1.291       .  A
O676       Zr691   2.420       .  S
O676        C699   1.290       .  A
O677       Zr690   2.420       .  S
O677        C700   1.289       .  A
O678       Zr692   2.425   1_455  S
O678        C701   1.288       .  A
O679      Zr1820   2.440       .  S
O679        C702   1.292       .  A
O680       Zr690   2.429       .  S
O680        C701   1.290       .  A
O681       Zr691   2.400       .  S
O681        C702   1.285       .  A
O682       Zr688   2.497       .  S
O682        C697   1.304       .  A
O683       Zr689   2.510       .  S
O683        C700   1.307       .  A
O684      Zr1817   2.505       .  S
O684        C699   1.306       .  A
O685      Zr1816   2.504   1_565  S
O685        C698   1.305       .  A
O686       Zr692   2.430   1_554  S
O686        C695   1.291       .  A
O687       Zr692   2.413       .  S
O687        C696   1.289       .  A
Zr688      O1813   2.495   1_445  S
Zr688      O1790   2.345   1_445  S
Zr688      O1270   2.348   1_455  S
Zr689      O1812   2.498   1_455  S
Zr689      O1235   2.366   1_455  S
Zr689      O1821   2.378   1_455  S
Zr689       O704   2.365       .  S
Zr690       O694   2.332   1_556  S
Zr690       O704   2.341       .  S
Zr691       O693   2.332       .  S
Zr691       O706   2.330   1_556  S
Zr692      O1807   2.460       .  S
Zr692      O1821   2.345       .  S
Zr692       O694   2.335   1_656  S
Zr692      O1834   2.322   1_556  S
Zr692       O704   2.358   1_655  S
O693      Zr1817   2.367       .  S
O693      Zr1820   2.342       .  S
C695        C801   1.489       .  S
C696        C905   1.508       .  S
C697        C745   1.503       .  S
C698        C761   1.501       .  S
C699        C881   1.506       .  S
C700        C889   1.501       .  S
C701        C865   1.465   1_556  S
C702        C849   1.471       .  S
H703        O704   0.965       .  S
H705        O706   0.964       .  S
O706      Zr1252   2.352       .  S
O706      Zr1820   2.327   1_554  S
N707        H739   1.041       .  S
N707        C712   1.351       .  A
N707        C711   1.352       .  A
N708        C715   1.351       .  A
N708        C716   1.350       .  A
N709        H740   1.043       .  S
N709        C714   1.354       .  A
N709        C713   1.346       .  A
N710        C717   1.342       .  A
N710        C718   1.347       .  A
C711        C719   1.389       .  A
C711        C727   1.412       .  A
C712        C728   1.410       .  A
C712        C720   1.387       .  A
C713        C721   1.386       .  A
C713        C730   1.404       .  A
C714        C729   1.410       .  A
C714        C722   1.387       .  A
C715        C727   1.408       .  A
C715        C723   1.385       .  A
C716        C730   1.408       .  A
C716        C724   1.384       .  A
C717        C725   1.390       .  A
C717        C728   1.403       .  A
C718        C726   1.383       .  A
C718        C729   1.404       .  A
C719        C720   1.369       .  A
C719        H731   1.083       .  S
C720        H732   1.083       .  S
C721        C722   1.369       .  A
C721        H733   1.082       .  S
C722        H734   1.081       .  S
C723        C724   1.372       .  A
C723        H735   1.083       .  S
C724        H736   1.082       .  S
C725        C726   1.368       .  A
C725        H737   1.079       .  S
C726        H738   1.082       .  S
C727        C809   1.476       .  S
C728        C833   1.470       .  S
C729        C841   1.490       .  S
C730        C857   1.473       .  S
C741        C785   1.563   1_655  S
C741        C793   1.559       .  S
C741       C1065   1.562   1_655  S
C741       C2217   1.569       .  S
C742       C1121   1.555       .  S
C743        C913   1.561       .  S
C743        C921   1.572       .  S
C743       C2073   1.562       .  S
C743        C961   1.568   1_655  S
C744        C873   1.569       .  S
C744        C897   1.572       .  S
C744        C977   1.579       .  S
C745        C746   1.407       .  A
C746        C747   1.409       .  A
C746        H755   1.083   1_545  S
C747        C748   1.410       .  A
C747        H756   1.083       .  S
C748        C754   1.413       .  A
C749        C751   1.403       .  A
C749        C750   1.398       .  A
C750        H757   1.084       .  S
C751        C752   1.398       .  A
C751        H758   1.084       .  S
C752        H759   1.080       .  S
C753        C754   1.425       .  A
C754        H760   1.084       .  S
C761        C766   1.414       .  A
C762        C763   1.413       .  A
C762        H771   1.083       .  S
C763        C764   1.412       .  A
C763        H772   1.083       .  S
C764        C770   1.418       .  A
C765        C767   1.401       .  A
C765        C766   1.411       .  A
C766        H773   1.084       .  S
C767        C768   1.399       .  A
C767        H774   1.084       .  S
C768        C769   1.415       .  A
C768        H775   1.082       .  S
C770        H776   1.082       .  S
C777       C1906   1.407   1_455  A
C777        C782   1.413       .  A
C778       C1905   1.406       .  A
C778        C779   1.402       .  A
C778        H787   1.083       .  S
C779        C780   1.404       .  A
C779        H788   1.083       .  S
C780        C786   1.408       .  A
C780       C1909   1.410       .  A
C781       C1908   1.409       .  A
C781        C783   1.399       .  A
C781        C782   1.406       .  A
C782        H789   1.084       .  S
C783        C784   1.397       .  A
C783        H790   1.084       .  S
C784        C785   1.415       .  A
C784        H791   1.081       .  S
C785       C1914   1.422   1_455  A
C786       C1913   1.415       .  A
C786        H792   1.083       .  S
C793        C794   1.412       .  A
C793       C1926   1.422   1_655  A
C794        C795   1.395       .  A
C794        H803   1.083       .  S
C795        C796   1.399       .  A
C795        H804   1.084       .  S
C796        C802   1.403       .  A
C796       C1925   1.410   1_655  A
C797       C1924   1.412       .  A
C797        C799   1.406       .  A
C797        C798   1.410       .  A
C798       C1921   1.417       .  A
C798        H805   1.081       .  S
C799        C800   1.402       .  A
C799        H806   1.083       .  S
C800       C1929   1.404       .  A
C800        H807   1.083       .  S
C801       C1928   1.406   1_655  A
C801        C802   1.408       .  A
C802        H808   1.085       .  S
C809        C810   1.401       .  A
C809        C814   1.401       .  A
C810        C811   1.400       .  A
C810        H819   1.083       .  S
C811        C812   1.406       .  A
C811        H820   1.084       .  S
C812        C818   1.399       .  A
C812        C813   1.414       .  A
C813        C815   1.403   1_554  A
C813        C814   1.394       .  A
C814        H821   1.085       .  S
C815        C816   1.394       .  A
C815        H822   1.083       .  S
C816        C817   1.397   1_556  A
C816        H823   1.083       .  S
C817        C818   1.404       .  A
C818        H824   1.085       .  S
C825        C826   1.403       .  A
C825        C830   1.392       .  A
C826        C827   1.388       .  A
C826        H835   1.083       .  S
C827        C828   1.397       .  A
C827        H836   1.084       .  S
C828        C834   1.391       .  A
C828        C829   1.418       .  A
C829        C831   1.397       .  A
C829        C830   1.394       .  A
C830        H837   1.085   1_554  S
C831        C832   1.390       .  A
C831        H838   1.084   1_554  S
C832        C833   1.407       .  A
C832        H839   1.084       .  S
C833        C834   1.393       .  A
C834        H840   1.084       .  S
C841        C842   1.409       .  A
C841        C846   1.402       .  A
C842        C843   1.394       .  A
C842        H851   1.083       .  S
C843        C844   1.398       .  A
C843        H852   1.084   1_554  S
C844        C850   1.400   1_554  A
C844        C845   1.415       .  A
C845        C847   1.396       .  A
C845        C846   1.397       .  A
C846        H853   1.085       .  S
C847        C848   1.390       .  A
C847        H854   1.084       .  S
C848        C849   1.409   1_554  A
C848        H855   1.083       .  S
C849        C850   1.402       .  A
C850        H856   1.084       .  S
C857        C858   1.402       .  A
C857        C862   1.401       .  A
C858        C859   1.393       .  A
C858        H867   1.084       .  S
C859        C860   1.402       .  A
C859        H868   1.084       .  S
C860        C866   1.396       .  A
C860        C861   1.415       .  A
C861        C863   1.403       .  A
C861        C862   1.399       .  A
C862        H869   1.085       .  S
C863        C864   1.397   1_554  A
C863        H870   1.084   1_554  S
C864        C865   1.402   1_556  A
C864        H871   1.083       .  S
C865        C866   1.402       .  A
C866        H872   1.085       .  S
C873        C878   1.426       .  A
C874        C875   1.400       .  A
C874        H883   1.081       .  S
C875        C876   1.402       .  A
C875        H884   1.083       .  S
C877        C879   1.410       .  A
C877        C878   1.416       .  A
C878        H885   1.084       .  S
C879        C880   1.410       .  A
C879        H886   1.082       .  S
C880        C881   1.407       .  A
C880        H887   1.083       .  S
C881        C882   1.418       .  A
C889        C894   1.416       .  A
C890        C891   1.413       .  A
C890        H899   1.083       .  S
C891        C892   1.411       .  A
C891        H900   1.083       .  S
C892        C898   1.421       .  A
C893        C895   1.403       .  A
C893        C894   1.415       .  A
C894        H901   1.084       .  S
C895        C896   1.403       .  A
C895        H902   1.084       .  S
C896        C897   1.415       .  A
C896        H903   1.083       .  S
C898        H904   1.082       .  S
C905       C2034   1.405   1_655  A
C905        C910   1.423       .  A
C906       C2033   1.407       .  A
C906        C907   1.412       .  A
C906        H915   1.083       .  S
C907        C908   1.412       .  A
C907        H916   1.083       .  S
C908        C914   1.416       .  A
C908       C2037   1.406       .  A
C909       C2036   1.407   1_655  A
C909        C911   1.409       .  A
C909        C910   1.415       .  A
C910        H917   1.084       .  S
C911        C912   1.408       .  A
C911        H918   1.084       .  S
C912        C913   1.412       .  A
C912        H919   1.081       .  S
C913       C2042   1.422   1_655  A
C914       C2041   1.429       .  A
C914        H920   1.084       .  S
C921        C922   1.423       .  A
C921       C2054   1.414   1_655  A
C922        C923   1.406       .  A
C922        H931   1.079       .  S
C923        C924   1.402       .  A
C923        H932   1.084       .  S
C924        C930   1.424       .  A
C924       C2053   1.414   1_655  A
C925       C2052   1.414       .  A
C925        C927   1.399       .  A
C925        C926   1.416       .  A
C926       C2049   1.415       .  A
C926        H933   1.084       .  S
C927        C928   1.398       .  A
C927        H934   1.083       .  S
C928       C2057   1.408       .  A
C928        H935   1.084       .  S
C929       C2056   1.410       .  A
C929        C930   1.413   1_455  A
C930        H936   1.084       .  S
C937        C938   1.407       .  A
C937        C942   1.414       .  A
C938        C939   1.409       .  A
C938        H947   1.083       .  S
C939        C940   1.410       .  A
C939        H948   1.083       .  S
C940        C946   1.411       .  A
C940        C941   1.406       .  A
C941        C943   1.402       .  A
C941        C942   1.401       .  A
C942        H949   1.084       .  S
C943        C944   1.397       .  A
C943        H950   1.084       .  S
C944        C945   1.410       .  A
C944        H951   1.080       .  S
C945        C946   1.425       .  A
C945       C1871   1.559       .  S
C946        H952   1.084       .  S
C953        C954   1.404       .  A
C953        C958   1.417       .  A
C954        C955   1.406       .  A
C954        H963   1.083       .  S
C955        C956   1.408       .  A
C955        H964   1.083       .  S
C956        C962   1.414       .  A
C956        C957   1.409       .  A
C957        C959   1.404       .  A
C957        C958   1.413       .  A
C958        H965   1.084       .  S
C959        C960   1.403       .  A
C959        H966   1.084       .  S
C960        C961   1.414       .  A
C960        H967   1.083       .  S
C961        C962   1.424       .  A
C962        H968   1.081       .  S
C969        C970   1.407       .  A
C969        C974   1.413       .  A
C970        C971   1.400       .  A
C970        H979   1.084       .  S
C971        C972   1.401       .  A
C971        H980   1.083       .  S
C972        C978   1.416       .  A
C972        C973   1.413       .  A
C973        C975   1.401       .  A
C973        C974   1.423       .  A
C974        H981   1.084       .  S
C975        C976   1.406       .  A
C975        H982   1.084       .  S
C976        C977   1.423       .  A
C976        H983   1.078       .  S
C977        C978   1.418       .  A
C978        H984   1.084       .  S
C985        C986   1.411       .  A
C985        C990   1.423       .  A
C986        C987   1.406       .  A
C986        H995   1.081       .  S
C987        C988   1.407       .  A
C987        H996   1.084       .  S
C988        C994   1.412       .  A
C988        C989   1.407       .  A
C989        C991   1.410       .  A
C989        C990   1.413       .  A
C990        H997   1.083       .  S
C991        C992   1.408       .  A
C991        H998   1.083       .  S
C992        C993   1.404       .  A
C992        H999   1.083       .  S
C993        C994   1.421       .  A
C994       H1000   1.084       .  S
C1001      C1002   1.405       .  A
C1001      C1006   1.407       .  A
C1002      C1003   1.398       .  A
C1002      H1011   1.083       .  S
C1003      C1004   1.404       .  A
C1003      H1012   1.084       .  S
C1004      C1010   1.400       .  A
C1004      C1005   1.413       .  A
C1005      C1007   1.404       .  A
C1005      C1006   1.398       .  A
C1006      H1013   1.085       .  S
C1007      C1008   1.397       .  A
C1007      H1014   1.084       .  S
C1008      C1009   1.402       .  A
C1008      H1015   1.083       .  S
C1009      C1010   1.405       .  A
C1010      H1016   1.085       .  S
C1017      C1018   1.406       .  A
C1017      C1022   1.401       .  A
C1018      C1019   1.401       .  A
C1018      H1027   1.083       .  S
C1019      C1020   1.405       .  A
C1019      H1028   1.083       .  S
C1020      C1026   1.404       .  A
C1020      C1021   1.412       .  A
C1021      C1023   1.396       .  A
C1021      C1022   1.391       .  A
C1022      H1029   1.085       .  S
C1023      C1024   1.388       .  A
C1023      H1030   1.084       .  S
C1024      C1025   1.408       .  A
C1024      H1031   1.083       .  S
C1025      C1026   1.408       .  A
C1026      H1032   1.084       .  S
C1033      C1034   1.408       .  A
C1033      C1038   1.407       .  A
C1034      C1035   1.391       .  A
C1034      H1043   1.083       .  S
C1035      C1036   1.397       .  A
C1035      H1044   1.084       .  S
C1036      C1042   1.398       .  A
C1036      C1037   1.415       .  A
C1037      C1039   1.403       .  A
C1037      C1038   1.405       .  A
C1038      H1045   1.084       .  S
C1039      C1040   1.399       .  A
C1039      H1046   1.083       .  S
C1040      C1041   1.405       .  A
C1040      H1047   1.083       .  S
C1041      C1042   1.401       .  A
C1042      H1048   1.085       .  S
C1049      C1050   1.398       .  A
C1049      C1054   1.401       .  A
C1050      C1051   1.395       .  A
C1050      H1059   1.083       .  S
C1051      C1052   1.404       .  A
C1051      H1060   1.084       .  S
C1052      C1058   1.394       .  A
C1052      C1053   1.414       .  A
C1053      C1055   1.404       .  A
C1053      C1054   1.395       .  A
C1054      H1061   1.086       .  S
C1055      C1056   1.396       .  A
C1055      H1062   1.084       .  S
C1056      C1057   1.401       .  A
C1056      H1063   1.083       .  S
C1057      C1058   1.402       .  A
C1058      H1064   1.085       .  S
C1065      C1066   1.412       .  A
C1065      C1070   1.423       .  A
C1066      C1067   1.401       .  A
C1066      H1075   1.080       .  S
C1067      C1068   1.404       .  A
C1067      H1076   1.084       .  S
C1068      C1074   1.408       .  A
C1068      C1069   1.406       .  A
C1069      C1071   1.408       .  A
C1069      C1070   1.414       .  A
C1070      H1077   1.083       .  S
C1071      C1072   1.410       .  A
C1071      H1078   1.079       .  S
C1072      C1073   1.407       .  A
C1072      H1079   1.083       .  S
C1073      C1074   1.419       .  A
C1074      H1080   1.084       .  S
C1081      C1082   1.408       .  A
C1081      C1086   1.411       .  A
C1082      C1083   1.411       .  A
C1082      H1091   1.083       .  S
C1083      C1084   1.411       .  A
C1083      H1092   1.082       .  S
C1084      C1090   1.420       .  A
C1084      C1085   1.410       .  A
C1085      C1087   1.400       .  A
C1085      C1086   1.408       .  A
C1086      H1093   1.084       .  S
C1087      C1088   1.397       .  A
C1087      H1094   1.084       .  S
C1088      C1089   1.412       .  A
C1088      H1095   1.083       .  S
C1089      C1090   1.426       .  A
C1089      C1869   1.564       .  S
C1090      H1096   1.082       .  S
C1097      C1098   1.414       .  A
C1097      C1102   1.404       .  A
C1098      C1099   1.400       .  A
C1098      H1107   1.084       .  S
C1099      C1100   1.400       .  A
C1099      H1108   1.084       .  S
C1100      C1106   1.417       .  A
C1100      C1101   1.415       .  A
C1101      C1103   1.394       .  A
C1101      C1102   1.417       .  A
C1102      H1109   1.084       .  S
C1103      C1104   1.397       .  A
C1103      H1110   1.084       .  S
C1104      C1105   1.424       .  A
C1104      H1111   1.079       .  S
C1105      C1106   1.417       .  A
C1106      H1112   1.084       .  S
C1113      C1114   1.408       .  A
C1113      C1118   1.417       .  A
C1114      C1115   1.410       .  A
C1114      H1123   1.083       .  S
C1115      C1116   1.411       .  A
C1115      H1124   1.084       .  S
C1116      C1122   1.412       .  A
C1116      C1117   1.407       .  A
C1117      C1119   1.405       .  A
C1117      C1118   1.406       .  A
C1118      H1125   1.084       .  S
C1119      C1120   1.401       .  A
C1119      H1126   1.083       .  S
C1120      C1121   1.409       .  A
C1120      H1127   1.080       .  S
C1121      C1122   1.425       .  A
C1122      H1128   1.084       .  S
O1129     Zr1165   2.525       .  S
O1129      C1140   1.310       .  A
O1130     Zr1164   2.505       .  S
O1130      C1141   1.304       .  A
O1131     Zr1137   2.422       .  S
O1131      C1142   1.287       .  A
O1132     Zr1137   2.411       .  S
O1132      C1143   1.288       .  A
O1133     Zr1167   2.438       .  S
O1133      C1143   1.290       .  A
O1134     Zr1166   2.410       .  S
O1134      C1142   1.285       .  A
O1135     Zr1137   2.406       .  S
O1135      C1141   1.287       .  A
O1136     Zr1137   2.418       .  S
O1136      C1140   1.289       .  A
Zr1137     O1138   2.328       .  S
Zr1137     O1139   2.330       .  S
Zr1137     O1147   2.332       .  S
Zr1137     O1145   2.331       .  S
O1138     Zr1164   2.358       .  S
O1138     Zr1167   2.335       .  S
O1139     Zr1165   2.355       .  S
O1139     Zr1166   2.331       .  S
C1140      C1677   1.513       .  S
C1141      C1533   1.486       .  S
C1142      C1573   1.447       .  S
C1143      C1589   1.480       .  S
H1144      O1145   0.965       .  S
O1145     Zr1164   2.347       .  S
O1145     Zr1166   2.332       .  S
H1146      O1147   0.966       .  S
O1147     Zr1165   2.367       .  S
O1147     Zr1167   2.350       .  S
O1148     Zr1164   2.516       .  S
O1148      C1171   1.308       .  A
O1149     Zr1165   2.508       .  S
O1149      C1172   1.306       .  A
O1150     Zr1166   2.403       .  S
O1150      C1173   1.286       .  A
O1151     Zr1167   2.422       .  S
O1151      C1174   1.290       .  A
O1152     Zr1167   2.427       .  S
O1152      C1175   1.292       .  A
O1153     Zr1166   2.417       .  S
O1153      C1176   1.288       .  A
O1154     Zr1168   2.439       .  S
O1154      C1177   1.290       .  A
O1155     Zr1168   2.432       .  S
O1155      C1178   1.290       .  A
O1156     Zr1166   2.409       .  S
O1156      C1177   1.285       .  A
O1157     Zr1167   2.440       .  S
O1157      C1178   1.292       .  A
O1158     Zr1164   2.494       .  S
O1158      C1173   1.303       .  A
O1159     Zr1165   2.508       .  S
O1159      C1176   1.307       .  A
O1160     Zr1165   2.499       .  S
O1160      C1175   1.305       .  A
O1161     Zr1164   2.495       .  S
O1161      C1174   1.304       .  A
O1162     Zr1168   2.415       .  S
O1162      C1171   1.288       .  A
O1163     Zr1168   2.402       .  S
O1163      C1172   1.287       .  A
Zr1164     O1170   2.357       .  S
Zr1164     O1182   2.349       .  S
Zr1165     O1169   2.377       .  S
Zr1165     O1180   2.373       .  S
Zr1166     O1170   2.333       .  S
Zr1166     O1180   2.336       .  S
Zr1167     O1169   2.341       .  S
Zr1167     O1182   2.340       .  S
Zr1168     O1169   2.344       .  S
Zr1168     O1170   2.328       .  S
Zr1168     O1182   2.333       .  S
Zr1168     O1180   2.345       .  S
C1171      C1557   1.509       .  S
C1172      C1661   1.484       .  S
C1173      C1501   1.492       .  S
C1174      C1517   1.494       .  S
C1175      C1637   1.502       .  S
C1176      C1645   1.497       .  S
C1177      C1613   1.460       .  S
C1178      C1597   1.482       .  S
H1179      O1180   0.967       .  S
H1181      O1182   0.963       .  S
N1183      H1215   1.041       .  S
N1183      C1187   1.347       .  A
N1184      C1755   1.355       .  A
N1184      C1192   1.351       .  A
N1185      H1216   1.043       .  S
N1185      C1189   1.345       .  A
N1186      C1757   1.347       .  A
N1186      C1194   1.349       .  A
C1187      C1195   1.385       .  A
C1187      C1203   1.405       .  A
C1188      C1204   1.410       .  A
C1188      C1196   1.387       .  A
C1189      C1197   1.387       .  A
C1189      C1206   1.397       .  A
C1190      C1205   1.415       .  A
C1190      C1198   1.387       .  A
C1191      N1748   1.351   1_545  A
C1191      C1203   1.407       .  A
C1191      C1199   1.387       .  A
C1192      C1206   1.414       .  A
C1192      C1200   1.386       .  A
C1193      N1750   1.349       .  A
C1193      C1201   1.387       .  A
C1193      C1204   1.414       .  A
C1194      C1202   1.385       .  A
C1194      C1205   1.408       .  A
C1195      H1207   1.083       .  S
C1196      H1208   1.082       .  S
C1197      H1209   1.081       .  S
C1198      H1210   1.082       .  S
C1199      C1764   1.367   1_545  A
C1199      H1211   1.082       .  S
C1200      C1763   1.371       .  A
C1200      H1212   1.083       .  S
C1201      C1766   1.374   1_545  A
C1201      H1213   1.082       .  S
C1202      C1765   1.370       .  A
C1202      H1214   1.082       .  S
C1203      C1565   1.474       .  S
C1204      C1581   1.489       .  S
C1205      C1605   1.488       .  S
C1206      C1621   1.476       .  S
O1217     Zr1817   2.515       .  S
O1217      C1228   1.307       .  A
O1218     Zr1252   2.495       .  S
O1218      C1229   1.302       .  A
O1219     Zr1225   2.437       .  S
O1219      C1230   1.290       .  A
O1220      C1231   1.284       .  A
O1221     Zr1819   2.419       .  S
O1221      C1231   1.288       .  A
O1222     Zr1818   2.432       .  S
O1222      C1230   1.289       .  A
O1223     Zr1225   2.420   1_554  S
O1223      C1229   1.290       .  A
O1224     Zr1225   2.411       .  S
O1224      C1228   1.288       .  A
Zr1225     O1227   2.340       .  S
Zr1225     O1233   2.328   1_556  S
O1226     Zr1819   2.330   1_554  S
O1227     Zr1817   2.369       .  S
O1227     Zr1818   2.333       .  S
C1228      C1493   1.492       .  S
C1229      C1341   1.502       .  S
C1230      C1381   1.465   1_556  S
C1231      C1389   1.463       .  S
H1232      O1233   0.964       .  S
O1233     Zr1252   2.354       .  S
O1233     Zr1818   2.341   1_554  S
H1234      O1235   0.966       .  S
O1235     Zr1819   2.335       .  S
O1236     Zr1816   2.476       .  S
O1236      C1259   1.300       .  A
O1237     Zr1253   2.525       .  S
O1237      C1260   1.310       .  A
O1238     Zr1818   2.401   1_554  S
O1238      C1261   1.286       .  A
O1239     Zr1819   2.423   1_554  S
O1239      C1262   1.290       .  A
O1240     Zr1255   2.406       .  S
O1240      C1263   1.288       .  A
O1241     Zr1254   2.402       .  S
O1241      C1264   1.286       .  A
O1242     Zr1256   2.419       .  S
O1242      C1265   1.286       .  A
O1243      C1266   1.290       .  A
O1244     Zr1254   2.394       .  S
O1244      C1265   1.282       .  A
O1245     Zr1255   2.450   1_545  S
O1245      C1266   1.292       .  A
O1246     Zr1252   2.486       .  S
O1246      C1261   1.301       .  A
O1247     Zr1253   2.501       .  S
O1247      C1264   1.305       .  A
O1248      C1263   1.304       .  A
O1249      C1262   1.301       .  A
O1250     Zr1256   2.431   1_554  S
O1250      C1259   1.292       .  A
O1251     Zr1256   2.430       .  S
O1251      C1260   1.292       .  A
Zr1252     O1800   2.462       .  S
Zr1252     O1822   2.357       .  S
Zr1253     O1781   2.509   1_545  S
Zr1253     O1791   2.363   1_545  S
Zr1253     O1268   2.364       .  S
Zr1254     O1786   2.428   1_545  S
Zr1254     O1802   2.412   1_556  S
Zr1254     O1791   2.326   1_545  S
Zr1254     O1797   2.324   1_546  S
Zr1254     O1258   2.328   1_556  S
Zr1254     O1268   2.343       .  S
Zr1255     O1785   2.414       .  S
Zr1255     O1803   2.413   1_556  S
Zr1255     O1790   2.330   1_556  S
Zr1255     O1799   2.348       .  S
Zr1255     O1257   2.337   1_565  S
Zr1255     O1270   2.326   1_566  S
Zr1256     O1258   2.333   1_556  S
Zr1256     O1268   2.349       .  S
O1258     Zr1816   2.344       .  S
C1259      C1365   1.490       .  S
C1260      C1469   1.516       .  S
C1261      C1309   1.490       .  S
C1262      C1325   1.486       .  S
C1263      C1445   1.493       .  S
C1264      C1453   1.489       .  S
C1265      C1429   1.439   1_556  S
C1266      C1413   1.485   1_556  S
H1267      O1268   0.964       .  S
H1269      O1270   0.964       .  S
N1271      H1303   1.040       .  S
N1271      C1276   1.345       .  A
N1271      C1275   1.350       .  A
N1272      C1279   1.355       .  A
N1272      C1280   1.348       .  A
N1273      H1304   1.040       .  S
N1273      C1278   1.355       .  A
N1273      C1277   1.345       .  A
N1274      C1281   1.345       .  A
N1274      C1282   1.350       .  A
C1275      C1283   1.384       .  A
C1275      C1291   1.401       .  A
C1276      C1292   1.409       .  A
C1276      C1284   1.389       .  A
C1277      C1285   1.388       .  A
C1277      C1294   1.406       .  A
C1278      C1293   1.414       .  A
C1278      C1286   1.383       .  A
C1279      C1291   1.409       .  A
C1279      C1287   1.383       .  A
C1280      C1294   1.412       .  A
C1280      C1288   1.390       .  A
C1281      C1289   1.388       .  A
C1281      C1292   1.409       .  A
C1282      C1290   1.385       .  A
C1282      C1293   1.411       .  A
C1283      C1284   1.375       .  A
C1283      H1295   1.082       .  S
C1284      H1296   1.082       .  S
C1285      C1286   1.379       .  A
C1285      H1297   1.083       .  S
C1286      H1298   1.082       .  S
C1287      C1288   1.371       .  A
C1287      H1299   1.082       .  S
C1288      H1300   1.082       .  S
C1289      C1290   1.371       .  A
C1289      H1301   1.082   1_554  S
C1290      H1302   1.082   1_554  S
C1291      C1373   1.484       .  S
C1292      C1397   1.470       .  S
C1293      C1405   1.497       .  S
C1294      C1421   1.461       .  S
C1305      C1349   1.556       .  S
C1305      C1357   1.561       .  S
C1305      C1629   1.561       .  S
C1306      C1881   1.559       .  S
C1306      C1897   1.560       .  S
C1306      C2233   1.571   1_545  S
C1306      C1685   1.564       .  S
C1307      C1477   1.566       .  S
C1307      C1485   1.577       .  S
C1307      C1525   1.568       .  S
C1308      C1437   1.556       .  S
C1308      C1461   1.562   1_565  S
C1308      C1541   1.572   1_565  S
C1308      C2113   1.566       .  S
C1309      C1310   1.405       .  A
C1309      C1878   1.414       .  A
C1310      C1311   1.404       .  A
C1310      H1319   1.083       .  S
C1311      C1312   1.407       .  A
C1311      H1320   1.083       .  S
C1312      C1318   1.404       .  A
C1312      C1877   1.407       .  A
C1313      C1876   1.407       .  A
C1313      C1315   1.401       .  A
C1313      C1314   1.401       .  A
C1314      C1873   1.413       .  A
C1314      H1321   1.084       .  S
C1315      C1316   1.397       .  A
C1315      H1322   1.084       .  S
C1316      C1881   1.411       .  A
C1316      H1323   1.080       .  S
C1317      C1880   1.411       .  A
C1317      C1318   1.419       .  A
C1317      C1870   1.552       .  S
C1318      H1324   1.084       .  S
C1325      C1890   1.405       .  A
C1325      C1330   1.409       .  A
C1326      C1889   1.405   1_545  A
C1326      C1327   1.408       .  A
C1326      H1335   1.083       .  S
C1327      C1328   1.409       .  A
C1327      H1336   1.083       .  S
C1328      C1334   1.415       .  A
C1328      C1893   1.409   1_545  A
C1329      C1892   1.411       .  A
C1329      C1331   1.399       .  A
C1329      C1330   1.406       .  A
C1330      H1337   1.085       .  S
C1331      C1332   1.396       .  A
C1331      H1338   1.084       .  S
C1332      C1333   1.414       .  A
C1332      H1339   1.083       .  S
C1333      C1898   1.420       .  A
C1333      C1870   1.558       .  S
C1334      C1897   1.422       .  A
C1334      H1340   1.082       .  S
C1341      C1346   1.413       .  A
C1342      C1343   1.406       .  A
C1342      H1351   1.083       .  S
C1343      C1344   1.407       .  A
C1343      H1352   1.084       .  S
C1344      C1350   1.410       .  A
C1345      C1347   1.400       .  A
C1345      C1346   1.401       .  A
C1346      H1353   1.084       .  S
C1347      C1348   1.394       .  A
C1347      H1354   1.084       .  S
C1348      C1349   1.410       .  A
C1348      H1355   1.081       .  S
C1350      H1356   1.083       .  S
C1357      C1358   1.415       .  A
C1358      C1359   1.397       .  A
C1358      H1367   1.082       .  S
C1359      C1360   1.399       .  A
C1359      H1368   1.084       .  S
C1360      C1366   1.407       .  A
C1361      C1363   1.404       .  A
C1361      C1362   1.408       .  A
C1362      H1369   1.082       .  S
C1363      C1364   1.400       .  A
C1363      H1370   1.083       .  S
C1364      H1371   1.083       .  S
C1365      C1366   1.409       .  A
C1366      H1372   1.085       .  S
C1373      C1374   1.403       .  A
C1373      C1378   1.404       .  A
C1374      C1375   1.402       .  A
C1374      H1383   1.083       .  S
C1375      C1376   1.406       .  A
C1375      H1384   1.084       .  S
C1376      C1382   1.405       .  A
C1376      C1377   1.414       .  A
C1377      C1379   1.403   1_554  A
C1377      C1378   1.399       .  A
C1378      H1385   1.085       .  S
C1379      C1380   1.396       .  A
C1379      H1386   1.083       .  S
C1380      C1381   1.400   1_556  A
C1380      H1387   1.083       .  S
C1381      C1382   1.407       .  A
C1382      H1388   1.085       .  S
C1389      C1390   1.406   1_556  A
C1389      C1394   1.402       .  A
C1390      C1391   1.389       .  A
C1390      H1399   1.083       .  S
C1391      C1392   1.397       .  A
C1391      H1400   1.084       .  S
C1392      C1398   1.391       .  A
C1392      C1393   1.415       .  A
C1393      C1395   1.400       .  A
C1393      C1394   1.393   1_554  A
C1394      H1401   1.085       .  S
C1395      C1396   1.391       .  A
C1395      H1402   1.084   1_554  S
C1396      C1397   1.404       .  A
C1396      H1403   1.083       .  S
C1397      C1398   1.398       .  A
C1398      H1404   1.085       .  S
C1405      C1406   1.408       .  A
C1405      C1410   1.403       .  A
C1406      C1407   1.405       .  A
C1406      H1415   1.083       .  S
C1407      C1408   1.406       .  A
C1407      H1416   1.083       .  S
C1408      C1414   1.413       .  A
C1408      C1409   1.414       .  A
C1409      C1411   1.396       .  A
C1409      C1410   1.399       .  A
C1410      H1417   1.085       .  S
C1411      C1412   1.389       .  A
C1411      H1418   1.084       .  S
C1412      C1413   1.408       .  A
C1412      H1419   1.081       .  S
C1413      C1414   1.411       .  A
C1414      H1420   1.084   1_554  S
C1421      C1422   1.398       .  A
C1421      C1426   1.399       .  A
C1422      C1423   1.395       .  A
C1422      H1431   1.083       .  S
C1423      C1424   1.405       .  A
C1423      H1432   1.084       .  S
C1424      C1430   1.390       .  A
C1424      C1425   1.413       .  A
C1425      C1427   1.402       .  A
C1425      C1426   1.385       .  A
C1426      H1433   1.086       .  S
C1427      C1428   1.391   1_554  A
C1427      H1434   1.084   1_554  S
C1428      C1429   1.396   1_556  A
C1428      H1435   1.083       .  S
C1429      C1430   1.400       .  A
C1430      H1436   1.086       .  S
C1437      C2002   1.412       .  A
C1437      C1442   1.420       .  A
C1438      C2001   1.413       .  A
C1438      C1439   1.400       .  A
C1438      H1447   1.080       .  S
C1439      C1440   1.402       .  A
C1439      H1448   1.084       .  S
C1440      C2010   1.405       .  A
C1440      C2005   1.406       .  A
C1441      C2004   1.406       .  A
C1441      C1443   1.406   1_565  A
C1441      C1442   1.407       .  A
C1442      H1449   1.084   1_565  S
C1443      C1444   1.404       .  A
C1443      H1450   1.076       .  S
C1444      C1445   1.404   1_545  A
C1444      H1451   1.083       .  S
C1445      C1446   1.416       .  A
C1446      C2004   1.402       .  A
C1446      H2016   1.084       .  S
H1452      C2010   1.084       .  S
C1453      C2018   1.403   1_545  A
C1453      C1458   1.413       .  A
C1454      C2017   1.406       .  A
C1454      C1455   1.409       .  A
C1454      H1463   1.083       .  S
C1455      C1456   1.409       .  A
C1455      H1464   1.083       .  S
C1456      C1462   1.419       .  A
C1456      C2021   1.411       .  A
C1457      C2020   1.410   1_545  A
C1457      C1459   1.401       .  A
C1457      C1458   1.407       .  A
C1458      H1465   1.085       .  S
C1459      C1460   1.399       .  A
C1459      H1466   1.084       .  S
C1460      C1461   1.415       .  A
C1460      H1467   1.083       .  S
C1461      C2026   1.421   1_545  A
C1462      C2025   1.424       .  A
C1462      H1468   1.082       .  S
C1469      C1474   1.422       .  A
C1470      C1471   1.408       .  A
C1470      H1479   1.083       .  S
C1471      C1472   1.410       .  A
C1471      H1480   1.083       .  S
C1472      C1478   1.412       .  A
C1473      C1475   1.407       .  A
C1473      C1474   1.414       .  A
C1474      H1481   1.083       .  S
C1475      C1476   1.405       .  A
C1475      H1482   1.083       .  S
C1476      C1477   1.410       .  A
C1476      H1483   1.080       .  S
C1478      H1484   1.084       .  S
C1485      C1486   1.424       .  A
C1486      C1487   1.402       .  A
C1486      H1495   1.078       .  S
C1487      C1488   1.397       .  A
C1487      H1496   1.083       .  S
C1488      C1494   1.420       .  A
C1489      C1491   1.403       .  A
C1489      C1490   1.425       .  A
C1490      H1497   1.083       .  S
C1491      C1492   1.406       .  A
C1491      H1498   1.083       .  S
C1492      H1499   1.083       .  S
C1493      C1494   1.409       .  A
C1494      H1500   1.084       .  S
C1501      C1502   1.404       .  A
C1501      C1506   1.416       .  A
C1502      C1503   1.405       .  A
C1502      H1511   1.083       .  S
C1503      C1504   1.408       .  A
C1503      H1512   1.083       .  S
C1504      C1510   1.406       .  A
C1504      C1505   1.407       .  A
C1505      C1507   1.404       .  A
C1505      C1506   1.402       .  A
C1506      H1513   1.084       .  S
C1507      C1508   1.400       .  A
C1507      H1514   1.084       .  S
C1508      C1509   1.414       .  A
C1508      H1515   1.081       .  S
C1509      C1510   1.420       .  A
C1510      H1516   1.084       .  S
C1517      C1518   1.405       .  A
C1517      C1522   1.413       .  A
C1518      C1519   1.407       .  A
C1518      H1527   1.083       .  S
C1519      C1520   1.409       .  A
C1519      H1528   1.083       .  S
C1520      C1526   1.414       .  A
C1520      C1521   1.409       .  A
C1521      C1523   1.402       .  A
C1521      C1522   1.408       .  A
C1522      H1529   1.085       .  S
C1523      C1524   1.400       .  A
C1523      H1530   1.084       .  S
C1524      C1525   1.414       .  A
C1524      H1531   1.083       .  S
C1525      C1526   1.425       .  A
C1526      H1532   1.081       .  S
C1533      C1534   1.407       .  A
C1533      C1538   1.407       .  A
C1534      C1535   1.397       .  A
C1534      H1543   1.081       .  S
C1535      C1536   1.399       .  A
C1535      H1544   1.084       .  S
C1536      C1542   1.411       .  A
C1536      C1537   1.414       .  A
C1537      C1539   1.397       .  A
C1537      C1538   1.416       .  A
C1538      H1545   1.084       .  S
C1539      C1540   1.400       .  A
C1539      H1546   1.084       .  S
C1540      C1541   1.424       .  A
C1540      H1547   1.078       .  S
C1541      C1542   1.414       .  A
C1542      H1548   1.084       .  S
C1549      C1550   1.411       .  A
C1549      C1554   1.427       .  A
C1549      C1872   1.565       .  S
C1550      C1551   1.403       .  A
C1550      H1559   1.079       .  S
C1551      C1552   1.405       .  A
C1551      H1560   1.084       .  S
C1552      C1558   1.410       .  A
C1552      C1553   1.406       .  A
C1553      C1555   1.411       .  A
C1553      C1554   1.416       .  A
C1554      H1561   1.083       .  S
C1555      C1556   1.411       .  A
C1555      H1562   1.083       .  S
C1556      C1557   1.407       .  A
C1556      H1563   1.083       .  S
C1557      C1558   1.420       .  A
C1558      H1564   1.084       .  S
C1565      C1566   1.403       .  A
C1565      C1570   1.401       .  A
C1566      C1567   1.398       .  A
C1566      H1575   1.083       .  S
C1567      C1568   1.405       .  A
C1567      H1576   1.084       .  S
C1568      C1574   1.396       .  A
C1568      C1569   1.413       .  A
C1569      C1571   1.402       .  A
C1569      C1570   1.391       .  A
C1570      H1577   1.085       .  S
C1571      C1572   1.392       .  A
C1571      H1578   1.084       .  S
C1572      C1573   1.397       .  A
C1572      H1579   1.083       .  S
C1573      C1574   1.403       .  A
C1574      H1580   1.086       .  S
C1581      C1582   1.409       .  A
C1581      C1586   1.398       .  A
C1582      C1583   1.404       .  A
C1582      H1591   1.083       .  S
C1583      C1584   1.405       .  A
C1583      H1592   1.083       .  S
C1584      C1590   1.411       .  A
C1584      C1585   1.414       .  A
C1585      C1587   1.391       .  A
C1585      C1586   1.391       .  A
C1586      H1593   1.085       .  S
C1587      C1588   1.383       .  A
C1587      H1594   1.084       .  S
C1588      C1589   1.408       .  A
C1588      H1595   1.082       .  S
C1589      C1590   1.411       .  A
C1590      H1596   1.084       .  S
C1597      C1598   1.409       .  A
C1597      C1602   1.407       .  A
C1598      C1599   1.397       .  A
C1598      H1607   1.083       .  S
C1599      C1600   1.401       .  A
C1599      H1608   1.084       .  S
C1600      C1606   1.403       .  A
C1600      C1601   1.414       .  A
C1601      C1603   1.403       .  A
C1601      C1602   1.404       .  A
C1602      H1609   1.084       .  S
C1603      C1604   1.397       .  A
C1603      H1610   1.083       .  S
C1604      C1605   1.404       .  A
C1604      H1611   1.083       .  S
C1605      C1606   1.406       .  A
C1606      H1612   1.085       .  S
C1613      C1614   1.399       .  A
C1613      C1618   1.405       .  A
C1614      C1615   1.394       .  A
C1614      H1623   1.083       .  S
C1615      C1616   1.402       .  A
C1615      H1624   1.084       .  S
C1616      C1622   1.391       .  A
C1616      C1617   1.413       .  A
C1617      C1619   1.406       .  A
C1617      C1618   1.397       .  A
C1618      H1625   1.085       .  S
C1619      C1620   1.398       .  A
C1619      H1626   1.084       .  S
C1620      C1621   1.398       .  A
C1620      H1627   1.076       .  S
C1621      C1622   1.403       .  A
C1622      H1628   1.085       .  S
C1629      C1630   1.412       .  A
C1629      C1634   1.425       .  A
C1630      C1631   1.397       .  A
C1630      H1639   1.081       .  S
C1631      C1632   1.400       .  A
C1631      H1640   1.084       .  S
C1632      C1638   1.405       .  A
C1632      C1633   1.407       .  A
C1633      C1635   1.410       .  A
C1633      C1634   1.417       .  A
C1634      H1641   1.083       .  S
C1635      C1636   1.412       .  A
C1635      H1642   1.080       .  S
C1636      C1637   1.408       .  A
C1636      H1643   1.083       .  S
C1637      C1638   1.413       .  A
C1638      H1644   1.084       .  S
C1645      C1646   1.404       .  A
C1645      C1650   1.417       .  A
C1646      C1647   1.404       .  A
C1646      H1655   1.083       .  S
C1647      C1648   1.406       .  A
C1647      H1656   1.083       .  S
C1648      C1654   1.411       .  A
C1648      C1649   1.409       .  A
C1649      C1651   1.405       .  A
C1649      C1650   1.413       .  A
C1650      H1657   1.084       .  S
C1651      C1652   1.403       .  A
C1651      H1658   1.084       .  S
C1652      C1653   1.414       .  A
C1652      H1659   1.083       .  S
C1653      C1654   1.419       .  A
C1654      H1660   1.082       .  S
C1661      C1662   1.407       .  A
C1661      C1666   1.409       .  A
C1662      C1663   1.395       .  A
C1662      H1671   1.084       .  S
C1663      C1664   1.397       .  A
C1663      H1672   1.083       .  S
C1664      C1670   1.411       .  A
C1664      C1665   1.415       .  A
C1665      C1667   1.397       .  A
C1665      C1666   1.419       .  A
C1666      H1673   1.084       .  S
C1667      C1668   1.401       .  A
C1667      H1674   1.084       .  S
C1668      C1669   1.426       .  A
C1668      H1675   1.078       .  S
C1669      C1670   1.412       .  A
C1669      C1870   1.572       .  S
C1670      H1676   1.084       .  S
C1677      C1678   1.406       .  A
C1677      C1682   1.423       .  A
C1678      C1679   1.408       .  A
C1678      H1687   1.083       .  S
C1679      C1680   1.407       .  A
C1679      H1688   1.078       .  S
C1680      C1686   1.415       .  A
C1680      C1681   1.406       .  A
C1681      C1683   1.407       .  A
C1681      C1682   1.415       .  A
C1682      H1689   1.083       .  S
C1683      C1684   1.406       .  A
C1683      H1690   1.083       .  S
C1684      C1685   1.412       .  A
C1684      H1691   1.080       .  S
C1685      C1686   1.424       .  A
C1686      H1692   1.084       .  S
O1693     Zr1729   2.518       .  S
O1693      C1704   1.308       .  A
O1694     Zr1728   2.511       .  S
O1694      C1705   1.306       .  A
O1695     Zr1701   2.419       .  S
O1695      C1706   1.286       .  A
O1696     Zr1701   2.376       .  S
O1696      C1707   1.281       .  A
O1697     Zr1731   2.469       .  S
O1697      C1707   1.296       .  A
O1698     Zr1730   2.441       .  S
O1698      C1706   1.291       .  A
O1699     Zr1701   2.412       .  S
O1699      C1705   1.287       .  A
O1700     Zr1701   2.400       .  S
O1700      C1704   1.285       .  A
Zr1701     O1702   2.338       .  S
Zr1701     O1703   2.327       .  S
Zr1701     O1711   2.339       .  S
Zr1701     O1709   2.314       .  S
O1702     Zr1728   2.365       .  S
O1702     Zr1731   2.342       .  S
O1703     Zr1729   2.369       .  S
O1703     Zr1730   2.330       .  S
C1704      C2241   1.506       .  S
C1705      C2097   1.491       .  S
C1706      C2137   1.468       .  S
C1707      C2153   1.474       .  S
H1708      O1709   0.964       .  S
O1709     Zr1728   2.354       .  S
O1709     Zr1730   2.332       .  S
H1710      O1711   0.966       .  S
O1711     Zr1729   2.363       .  S
O1711     Zr1731   2.347       .  S
O1712     Zr1728   2.528       .  S
O1712      C1735   1.310       .  A
O1713     Zr1729   2.514       .  S
O1713      C1736   1.306       .  A
O1714     Zr1730   2.426       .  S
O1714      C1737   1.291       .  A
O1715     Zr1731   2.427       .  S
O1715      C1738   1.290       .  A
O1716     Zr1731   2.415       .  S
O1716      C1739   1.289       .  A
O1717     Zr1730   2.448       .  S
O1717      C1740   1.295       .  A
O1718     Zr1732   2.416       .  S
O1718      C1741   1.286       .  A
O1719     Zr1732   2.426       .  S
O1719      C1742   1.290       .  A
O1720     Zr1730   2.415       .  S
O1720      C1741   1.286       .  A
O1721     Zr1731   2.450       .  S
O1721      C1742   1.294       .  A
O1722     Zr1728   2.493       .  S
O1722      C1737   1.304       .  A
O1723     Zr1729   2.479       .  S
O1723      C1740   1.300       .  A
O1724     Zr1729   2.507       .  S
O1724      C1739   1.306       .  A
O1725     Zr1728   2.497       .  S
O1725      C1738   1.304       .  A
O1726     Zr1732   2.417       .  S
O1726      C1735   1.288       .  A
O1727     Zr1732   2.410       .  S
O1727      C1736   1.287       .  A
Zr1728     O1734   2.356       .  S
Zr1728     O1746   2.352       .  S
Zr1729     O1733   2.366       .  S
Zr1729     O1744   2.363       .  S
Zr1730     O1734   2.350       .  S
Zr1730     O1744   2.339       .  S
Zr1731     O1733   2.351       .  S
Zr1731     O1746   2.345       .  S
Zr1732     O1733   2.338       .  S
Zr1732     O1734   2.330       .  S
Zr1732     O1746   2.331       .  S
Zr1732     O1744   2.337       .  S
C1735      C2121   1.514       .  S
C1736      C2225   1.493       .  S
C1737      C2065   1.497       .  S
C1738      C2081   1.492       .  S
C1739      C2201   1.498       .  S
C1740      C2209   1.492       .  S
C1741      C2177   1.449       .  S
C1742      C2161   1.486       .  S
H1743      O1744   0.966       .  S
H1745      O1746   0.965       .  S
N1747      H1779   1.042       .  S
N1747      C1751   1.346       .  A
N1748      C1756   1.351       .  A
N1749      H1780   1.041       .  S
N1749      C1753   1.344       .  A
N1750      C1758   1.351   1_545  A
C1751      C1759   1.385       .  A
C1751      C1767   1.405       .  A
C1752      C1768   1.409       .  A
C1752      C1760   1.388       .  A
C1753      C1761   1.386       .  A
C1753      C1770   1.400       .  A
C1754      C1769   1.415       .  A
C1754      C1762   1.387       .  A
C1755      C1767   1.414       .  A
C1755      C1763   1.387       .  A
C1756      C1770   1.408       .  A
C1756      C1764   1.387       .  A
C1757      C1765   1.387       .  A
C1757      C1768   1.410       .  A
C1758      C1766   1.386       .  A
C1758      C1769   1.412       .  A
C1759      H1771   1.082       .  S
C1760      H1772   1.082       .  S
C1761      H1773   1.082       .  S
C1762      H1774   1.082       .  S
C1763      H1775   1.080       .  S
C1764      H1776   1.081       .  S
C1765      H1777   1.082       .  S
C1766      H1778   1.082       .  S
C1767      C2129   1.495       .  S
C1768      C2145   1.481       .  S
C1769      C2169   1.497       .  S
C1770      C2185   1.471       .  S
O1781      C1792   1.305       .  A
O1782     Zr1816   2.464   1_565  S
O1782      C1793   1.298       .  A
O1783     Zr1789   2.406       .  S
O1783      C1794   1.284       .  A
O1784      C1795   1.286       .  A
O1785      C1795   1.287       .  A
O1786      C1794   1.288       .  A
O1787     Zr1789   2.432   1_554  S
O1787      C1793   1.292       .  A
O1788     Zr1789   2.424       .  S
O1788      C1792   1.290       .  A
Zr1789     O1791   2.328       .  S
Zr1789     O1797   2.328   1_556  S
C1792      C2057   1.495       .  S
C1793      C1905   1.489       .  S
C1794      C1945   1.455       .  S
C1795      C1953   1.452   1_556  S
H1796      O1797   0.965       .  S
O1797     Zr1816   2.356   1_565  S
H1798      O1799   0.965       .  S
O1800      C1823   1.297       .  A
O1801     Zr1817   2.531       .  S
O1801      C1824   1.311       .  A
O1802      C1825   1.288       .  A
O1803      C1826   1.288       .  A
O1804     Zr1819   2.414       .  S
O1804      C1827   1.289       .  A
O1805     Zr1818   2.430       .  S
O1805      C1828   1.291       .  A
O1806     Zr1820   2.418       .  S
O1806      C1829   1.286       .  A
O1807      C1830   1.295       .  A
O1808     Zr1818   2.419       .  S
O1808      C1829   1.287       .  A
O1809     Zr1819   2.416       .  S
O1809      C1830   1.287       .  A
O1810     Zr1816   2.483       .  S
O1810      C1825   1.301       .  A
O1811     Zr1817   2.497       .  S
O1811      C1828   1.304       .  A
O1812      C1827   1.305       .  A
O1813      C1826   1.303       .  A
O1814     Zr1820   2.433   1_554  S
O1814      C1823   1.291       .  A
O1815     Zr1820   2.415       .  S
O1815      C1824   1.289       .  A
Zr1817     O1832   2.371       .  S
Zr1818     O1822   2.332   1_556  S
Zr1818     O1832   2.339       .  S
Zr1819     O1821   2.344       .  S
Zr1819     O1834   2.336   1_556  S
Zr1820     O1822   2.332   1_556  S
Zr1820     O1832   2.348       .  S
C1823      C1929   1.480       .  S
C1824      C2033   1.514       .  S
C1825      C1873   1.494       .  S
C1826      C1889   1.492       .  S
C1827      C2009   1.499       .  S
C1828      C2017   1.500       .  S
C1829      C1993   1.451   1_556  S
C1830      C1977   1.477   1_556  S
H1831      O1832   0.965       .  S
H1833      O1834   0.962       .  S
N1835      H1867   1.041       .  S
N1835      C1840   1.352       .  A
N1835      C1839   1.352       .  A
N1836      C1843   1.351       .  A
N1836      C1844   1.350       .  A
N1837      H1868   1.041       .  S
N1837      C1842   1.357       .  A
N1837      C1841   1.347       .  A
N1838      C1845   1.341       .  A
N1838      C1846   1.344       .  A
C1839      C1847   1.387       .  A
C1839      C1855   1.411       .  A
C1840      C1856   1.414       .  A
C1840      C1848   1.389       .  A
C1841      C1849   1.389       .  A
C1841      C1858   1.412       .  A
C1842      C1857   1.413       .  A
C1842      C1850   1.386       .  A
C1843      C1855   1.410       .  A
C1843      C1851   1.387       .  A
C1844      C1858   1.408       .  A
C1844      C1852   1.386       .  A
C1845      C1853   1.386       .  A
C1845      C1856   1.396       .  A
C1846      C1854   1.386       .  A
C1846      C1857   1.401       .  A
C1847      C1848   1.371       .  A
C1847      H1859   1.082       .  S
C1848      H1860   1.082       .  S
C1849      C1850   1.370       .  A
C1849      H1861   1.082       .  S
C1850      H1862   1.081       .  S
C1851      C1852   1.372       .  A
C1851      H1863   1.083       .  S
C1852      H1864   1.082       .  S
C1853      C1854   1.371       .  A
C1853      H1865   1.083       .  S
C1854      H1866   1.083       .  S
C1855      C1937   1.477       .  S
C1856      C1961   1.470       .  S
C1857      C1969   1.489       .  S
C1858      C1985   1.468       .  S
C1869      C1913   1.547       .  S
C1869      C1921   1.555       .  S
C1869      C2193   1.562       .  S
C1870      C2249   1.561       .  S
C1871      C2041   1.567       .  S
C1871      C2049   1.579       .  S
C1871      C2089   1.569       .  S
C1872      C2001   1.565       .  S
C1872      C2025   1.566       .  S
C1872      C2105   1.578       .  S
C1873      C1874   1.406       .  A
C1874      C1875   1.407       .  A
C1874      H1883   1.083   1_545  S
C1875      C1876   1.408       .  A
C1875      H1884   1.083   1_545  S
C1876      C1882   1.409       .  A
C1877      C1879   1.402       .  A
C1877      C1878   1.399       .  A
C1878      H1885   1.084       .  S
C1879      C1880   1.396       .  A
C1879      H1886   1.084       .  S
C1880      H1887   1.080       .  S
C1881      C1882   1.422       .  A
C1882      H1888   1.084   1_545  S
C1889      C1894   1.412       .  A
C1890      C1891   1.403       .  A
C1890      H1899   1.083       .  S
C1891      C1892   1.406       .  A
C1891      H1900   1.083       .  S
C1892      C1898   1.410       .  A
C1893      C1895   1.399       .  A
C1893      C1894   1.404       .  A
C1894      H1901   1.085       .  S
C1895      C1896   1.396       .  A
C1895      H1902   1.084       .  S
C1896      C1897   1.414   1_565  A
C1896      H1903   1.083       .  S
C1898      H1904   1.081       .  S
C1905      C1910   1.410       .  A
C1906      C1907   1.409       .  A
C1906      H1915   1.083       .  S
C1907      C1908   1.409   1_655  A
C1907      H1916   1.083       .  S
C1908      C1914   1.417   1_455  A
C1909      C1911   1.399       .  A
C1909      C1910   1.403       .  A
C1910      H1917   1.084       .  S
C1911      C1912   1.395       .  A
C1911      H1918   1.084       .  S
C1912      C1913   1.415       .  A
C1912      H1919   1.082       .  S
C1914      H1920   1.083       .  S
C1921      C1922   1.414       .  A
C1922      C1923   1.395       .  A
C1922      H1931   1.082       .  S
C1923      C1924   1.398       .  A
C1923      H1932   1.084       .  S
C1924      C1930   1.404       .  A
C1925      C1927   1.409       .  A
C1925      C1926   1.412       .  A
C1926      H1933   1.082       .  S
C1927      C1928   1.407       .  A
C1927      H1934   1.084       .  S
C1928      H1935   1.083       .  S
C1929      C1930   1.406       .  A
C1930      H1936   1.085       .  S
C1937      C1938   1.400       .  A
C1937      C1942   1.401       .  A
C1938      C1939   1.396       .  A
C1938      H1947   1.081       .  S
C1939      C1940   1.403       .  A
C1939      H1948   1.084       .  S
C1940      C1946   1.397       .  A
C1940      C1941   1.415       .  A
C1941      C1943   1.403   1_554  A
C1941      C1942   1.396       .  A
C1942      H1949   1.085       .  S
C1943      C1944   1.394       .  A
C1943      H1950   1.084       .  S
C1944      C1945   1.400       .  A
C1944      H1951   1.084       .  S
C1945      C1946   1.402   1_556  A
C1946      H1952   1.086       .  S
C1953      C1954   1.402       .  A
C1953      C1958   1.399       .  A
C1954      C1955   1.383       .  A
C1954      H1963   1.083       .  S
C1955      C1956   1.392       .  A
C1955      H1964   1.084       .  S
C1956      C1962   1.392       .  A
C1956      C1957   1.421       .  A
C1957      C1959   1.401       .  A
C1957      C1958   1.404       .  A
C1958      H1965   1.084   1_554  S
C1959      C1960   1.396       .  A
C1959      H1966   1.084   1_554  S
C1960      C1961   1.406       .  A
C1960      H1967   1.084       .  S
C1961      C1962   1.389       .  A
C1962      H1968   1.085       .  S
C1969      C1970   1.408       .  A
C1969      C1974   1.402       .  A
C1970      C1971   1.393       .  A
C1970      H1979   1.084       .  S
C1971      C1972   1.398       .  A
C1971      H1980   1.084       .  S
C1972      C1978   1.403       .  A
C1972      C1973   1.417       .  A
C1973      C1975   1.399       .  A
C1973      C1974   1.404       .  A
C1974      H1981   1.084       .  S
C1975      C1976   1.395       .  A
C1975      H1982   1.084       .  S
C1976      C1977   1.410       .  A
C1976      H1983   1.083       .  S
C1977      C1978   1.402       .  A
C1978      H1984   1.084   1_554  S
C1985      C1986   1.400       .  A
C1985      C1990   1.401       .  A
C1986      C1987   1.393       .  A
C1986      H1995   1.083       .  S
C1987      C1988   1.402       .  A
C1987      H1996   1.084       .  S
C1988      C1994   1.394       .  A
C1988      C1989   1.415       .  A
C1989      C1991   1.403   1_554  A
C1989      C1990   1.395       .  A
C1990      H1997   1.085       .  S
C1991      C1992   1.396       .  A
C1991      H1998   1.084       .  S
C1992      C1993   1.398   1_556  A
C1992      H1999   1.083       .  S
C1993      C1994   1.400       .  A
C1994      H2000   1.086       .  S
C2001      C2006   1.422       .  A
C2002      C2003   1.399       .  A
C2002      H2011   1.081       .  S
C2003      C2004   1.403       .  A
C2003      H2012   1.084       .  S
C2005      C2007   1.407       .  A
C2005      C2006   1.411       .  A
C2006      H2013   1.084       .  S
C2007      C2008   1.406       .  A
C2007      H2014   1.078       .  S
C2008      C2009   1.405       .  A
C2008      H2015   1.083       .  S
C2009      C2010   1.417       .  A
C2017      C2022   1.413       .  A
C2018      C2019   1.404       .  A
C2018      H2027   1.083       .  S
C2019      C2020   1.407       .  A
C2019      H2028   1.083       .  S
C2020      C2026   1.411       .  A
C2021      C2023   1.401       .  A
C2021      C2022   1.411       .  A
C2022      H2029   1.084       .  S
C2023      C2024   1.399       .  A
C2023      H2030   1.084       .  S
C2024      C2025   1.414       .  A
C2024      H2031   1.083       .  S
C2026      H2032   1.081       .  S
C2033      C2038   1.423       .  A
C2034      C2035   1.405       .  A
C2034      H2043   1.083       .  S
C2035      C2036   1.407       .  A
C2035      H2044   1.083       .  S
C2036      C2042   1.411       .  A
C2037      C2039   1.408       .  A
C2037      C2038   1.412       .  A
C2038      H2045   1.083       .  S
C2039      C2040   1.406       .  A
C2039      H2046   1.083       .  S
C2040      C2041   1.409       .  A
C2040      H2047   1.080       .  S
C2042      H2048   1.084       .  S
C2049      C2050   1.426       .  A
C2050      C2051   1.404       .  A
C2050      H2059   1.078       .  S
C2051      C2052   1.399       .  A
C2051      H2060   1.084       .  S
C2052      C2058   1.424       .  A
C2053      C2055   1.399       .  A
C2053      C2054   1.414       .  A
C2054      H2061   1.084       .  S
C2055      C2056   1.398       .  A
C2055      H2062   1.084       .  S
C2056      H2063   1.084       .  S
C2057      C2058   1.413       .  A
C2058      H2064   1.084       .  S
C2065      C2066   1.406       .  A
C2065      C2070   1.415       .  A
C2066      C2067   1.406       .  A
C2066      H2075   1.083       .  S
C2067      C2068   1.408       .  A
C2067      H2076   1.083       .  S
C2068      C2074   1.410       .  A
C2068      C2069   1.408       .  A
C2069      C2071   1.404       .  A
C2069      C2070   1.406       .  A
C2070      H2077   1.084       .  S
C2071      C2072   1.402       .  A
C2071      H2078   1.084       .  S
C2072      C2073   1.412       .  A
C2072      H2079   1.081       .  S
C2073      C2074   1.422       .  A
C2074      H2080   1.084       .  S
C2081      C2082   1.404       .  A
C2081      C2086   1.414       .  A
C2082      C2083   1.405       .  A
C2082      H2091   1.083       .  S
C2083      C2084   1.408       .  A
C2083      H2092   1.083       .  S
C2084      C2090   1.412       .  A
C2084      C2085   1.409       .  A
C2085      C2087   1.403       .  A
C2085      C2086   1.411       .  A
C2086      H2093   1.085       .  S
C2087      C2088   1.402       .  A
C2087      H2094   1.084       .  S
C2088      C2089   1.415       .  A
C2088      H2095   1.083       .  S
C2089      C2090   1.424       .  A
C2090      H2096   1.080       .  S
C2097      C2098   1.408       .  A
C2097      C2102   1.409       .  A
C2098      C2099   1.400       .  A
C2098      H2107   1.083       .  S
C2099      C2100   1.402       .  A
C2099      H2108   1.084       .  S
C2100      C2106   1.416       .  A
C2100      C2101   1.413       .  A
C2101      C2103   1.398       .  A
C2101      C2102   1.420       .  A
C2102      H2109   1.084       .  S
C2103      C2104   1.402       .  A
C2103      H2110   1.084       .  S
C2104      C2105   1.423       .  A
C2104      H2111   1.077       .  S
C2105      C2106   1.419       .  A
C2106      H2112   1.084       .  S
C2113      C2114   1.411       .  A
C2113      C2118   1.426       .  A
C2114      C2115   1.405       .  A
C2114      H2123   1.080       .  S
C2115      C2116   1.407       .  A
C2115      H2124   1.083       .  S
C2116      C2122   1.413       .  A
C2116      C2117   1.406       .  A
C2117      C2119   1.410       .  A
C2117      C2118   1.416       .  A
C2118      H2125   1.084       .  S
C2119      C2120   1.411       .  A
C2119      H2126   1.083       .  S
C2120      C2121   1.407       .  A
C2120      H2127   1.082       .  S
C2121      C2122   1.422       .  A
C2122      H2128   1.083       .  S
C2129      C2130   1.406       .  A
C2129      C2134   1.409       .  A
C2130      C2131   1.402       .  A
C2130      H2139   1.083       .  S
C2131      C2132   1.406       .  A
C2131      H2140   1.083       .  S
C2132      C2138   1.403       .  A
C2132      C2133   1.411       .  A
C2133      C2135   1.402       .  A
C2133      C2134   1.395       .  A
C2134      H2141   1.084       .  S
C2135      C2136   1.393       .  A
C2135      H2142   1.084       .  S
C2136      C2137   1.400       .  A
C2136      H2143   1.083       .  S
C2137      C2138   1.409       .  A
C2138      H2144   1.085       .  S
C2145      C2146   1.407       .  A
C2145      C2150   1.397       .  A
C2146      C2147   1.400       .  A
C2146      H2155   1.083       .  S
C2147      C2148   1.403       .  A
C2147      H2156   1.083       .  S
C2148      C2154   1.406       .  A
C2148      C2149   1.415       .  A
C2149      C2151   1.391       .  A
C2149      C2150   1.388       .  A
C2150      H2157   1.085       .  S
C2151      C2152   1.382       .  A
C2151      H2158   1.084       .  S
C2152      C2153   1.411       .  A
C2152      H2159   1.083       .  S
C2153      C2154   1.405       .  A
C2154      H2160   1.084       .  S
C2161      C2162   1.410       .  A
C2161      C2166   1.408       .  A
C2162      C2163   1.395       .  A
C2162      H2171   1.083       .  S
C2163      C2164   1.399       .  A
C2163      H2172   1.084       .  S
C2164      C2170   1.404       .  A
C2164      C2165   1.414       .  A
C2165      C2167   1.402       .  A
C2165      C2166   1.407       .  A
C2166      H2173   1.084       .  S
C2167      C2168   1.398       .  A
C2167      H2174   1.083       .  S
C2168      C2169   1.408       .  A
C2168      H2175   1.083       .  S
C2169      C2170   1.406       .  A
C2170      H2176   1.084       .  S
C2177      C2178   1.398       .  A
C2177      C2182   1.399       .  A
C2178      C2179   1.396       .  A
C2178      H2187   1.083       .  S
C2179      C2180   1.405       .  A
C2179      H2188   1.084       .  S
C2180      C2186   1.393       .  A
C2180      C2181   1.413       .  A
C2181      C2183   1.403       .  A
C2181      C2182   1.392       .  A
C2182      H2189   1.086       .  S
C2183      C2184   1.394       .  A
C2183      H2190   1.084       .  S
C2184      C2185   1.399       .  A
C2184      H2191   1.083       .  S
C2185      C2186   1.405       .  A
C2186      H2192   1.085       .  S
C2193      C2194   1.414       .  A
C2193      C2198   1.423       .  A
C2194      C2195   1.399       .  A
C2194      H2203   1.081       .  S
C2195      C2196   1.402       .  A
C2195      H2204   1.084       .  S
C2196      C2202   1.407       .  A
C2196      C2197   1.408       .  A
C2197      C2199   1.409       .  A
C2197      C2198   1.413       .  A
C2198      H2205   1.083       .  S
C2199      C2200   1.407       .  A
C2199      H2206   1.082       .  S
C2200      C2201   1.406       .  A
C2200      H2207   1.083       .  S
C2201      C2202   1.416       .  A
C2202      H2208   1.084       .  S
C2209      C2210   1.407       .  A
C2209      C2214   1.407       .  A
C2210      C2211   1.409       .  A
C2210      H2219   1.083       .  S
C2211      C2212   1.410       .  A
C2211      H2220   1.083       .  S
C2212      C2218   1.420       .  A
C2212      C2213   1.412       .  A
C2213      C2215   1.397       .  A
C2213      C2214   1.409       .  A
C2214      H2221   1.085       .  S
C2215      C2216   1.396       .  A
C2215      H2222   1.084       .  S
C2216      C2217   1.415       .  A
C2216      H2223   1.082       .  S
C2217      C2218   1.425       .  A
C2218      H2224   1.080       .  S
C2225      C2226   1.411       .  A
C2225      C2230   1.406       .  A
C2226      C2227   1.400       .  A
C2226      H2235   1.084       .  S
C2227      C2228   1.401       .  A
C2227      H2236   1.084       .  S
C2228      C2234   1.416       .  A
C2228      C2229   1.414       .  A
C2229      C2231   1.396       .  A
C2229      C2230   1.418       .  A
C2230      H2237   1.084       .  S
C2231      C2232   1.400       .  A
C2231      H2238   1.082       .  S
C2232      C2233   1.422       .  A
C2232      H2239   1.080       .  S
C2233      C2234   1.416       .  A
C2234      H2240   1.084       .  S
C2241      C2242   1.406       .  A
C2241      C2246   1.421       .  A
C2242      C2243   1.410       .  A
C2242      H2251   1.083       .  S
C2243      C2244   1.411       .  A
C2243      H2252   1.084       .  S
C2244      C2250   1.412       .  A
C2244      C2245   1.406       .  A
C2245      C2247   1.406       .  A
C2245      C2246   1.407       .  A
C2246      H2253   1.084       .  S
C2247      C2248   1.403       .  A
C2247      H2254   1.084       .  S
C2248      C2249   1.410       .  A
C2248      H2255   1.080       .  S
C2249      C2250   1.425       .  A
C2250      H2256   1.084       .  S
