geometry optimzed in LAMMPS
_audit_creation_date              2020-12-01 
_audit_creation_method            'lammps2cif' 
_symmetry_space_group_name_H-M    'P1' 
_symmetry_Int_Tables_number       1 
_symmetry_cell_setting            triclinic 
loop_ 
_symmetry_equiv_pos_as_xyz 
  x,y,z 
_cell_length_a                    29.68446795 
_cell_length_b                    29.946403147517664 
_cell_length_c                    58.12119568911756 
_cell_angle_alpha                 91.09170352546325 
_cell_angle_beta                  90.08246896205316 
_cell_angle_gamma                 91.02189593499088 
loop_ 
_atom_site_label 
_atom_site_type_symbol 
_atom_site_fract_x 
_atom_site_fract_y 
_atom_site_fract_z 
_atom_site_charge 
C1          C  0.03555380  0.82923308  0.32683139     0.86100
C2          C  0.03845194  0.88105501  0.32885729    -0.54100
C3          C  0.03677718  0.90078419  0.30787518     0.09000
C4          C  0.03027431  0.86115481  0.28820265     0.20000
C5          C  0.98709090  0.82354016  0.31394799    -0.54900
C6          C  0.98412676  0.84287670  0.29255364     0.09100
C7          C  0.07598745  0.81786575  0.30932592    -0.54400
C8          C  0.07399164  0.83766303  0.28828881     0.09700
H9          H  0.04188543  0.89968167  0.34497531     0.14200
H10         H  0.02618679  0.84908617  0.27042610     0.00000
H11         H  0.95642205  0.82032685  0.32394959     0.14500
H12         H  0.10746387  0.80435313  0.31533514     0.14300
C13         C  0.04940762  0.82963735  0.74908783     0.86100
C14         C  0.08772184  0.83754719  0.76879020    -0.54100
C15         C  0.08005006  0.87184964  0.78442431     0.09000
C16         C  0.03515584  0.88909107  0.77783195     0.20000
C17         C  0.99973058  0.82969548  0.76024883    -0.54900
C18         C  0.99136965  0.86440871  0.77546099     0.09100
C19         C  0.05212978  0.87577561  0.73734359    -0.54400
C20         C  0.04357439  0.91016334  0.75224500     0.09700
H21         H  0.12233493  0.82835948  0.76547247     0.14200
H22         H  0.02797971  0.89205220  0.79625083     0.00000
H23         H  0.97212320  0.81035801  0.75260388     0.14500
H24         H  0.05992351  0.88053554  0.71931785     0.14300
N25         N  0.20171285  0.66475895  0.58739907    -0.27700
N26         N  0.23069130  0.63196329  0.58534683    -0.35500
C27         C  0.24383561  0.62822303  0.56335140     0.00700
C28         C  0.22173083  0.65977309  0.55072620     0.06700
C29         C  0.19556096  0.68277879  0.56657341    -0.06400
H30         H  0.26393897  0.60115828  0.55666756     0.07400
H31         H  0.17066429  0.70760874  0.56288305     0.08600
Cu32       Cu  0.23952201  0.58376781  0.60971880     0.44200
Cu33       Cu  0.16547705  0.67563435  0.61745988     0.42000
Cu34       Cu  0.15819792  0.57702519  0.65442872     0.43900
N35         N  0.22635602  0.52606650  0.62749890    -0.35100
N36         N  0.19501073  0.52274938  0.64349977    -0.29300
C37         C  0.18925468  0.47950402  0.64885801    -0.05400
C38         C  0.21823782  0.45455190  0.63536180     0.06800
C39         C  0.24130669  0.48517580  0.62211816     0.00600
H40         H  0.16384714  0.46700465  0.66053308     0.08200
H41         H  0.26473892  0.47807131  0.60834779     0.07300
N42         N  0.13085402  0.63835619  0.66237020    -0.36500
N43         N  0.13388648  0.67400313  0.64931695    -0.28700
C44         C  0.11570452  0.70875814  0.66066985    -0.03900
C45         C  0.10099867  0.69442701  0.68191552     0.04700
C46         C  0.11065014  0.64947350  0.68227648     0.02800
H47         H  0.11502731  0.74248866  0.65434169     0.07900
H48         H  0.10422638  0.62641328  0.69600031     0.06700
N49         N  0.18891087  0.66605155  0.49054227    -0.27700
N50         N  0.21707047  0.63238721  0.48980285    -0.35500
C51         C  0.23556179  0.62768119  0.51066428     0.00700
C52         C  0.21791243  0.65955087  0.52545043     0.06700
C53         C  0.18857365  0.68357204  0.51207951    -0.06400
H54         H  0.25704389  0.60038214  0.51517246     0.07400
H55         H  0.16613531  0.70947569  0.51793726     0.08600
Cu56       Cu  0.22092971  0.58696737  0.46268173     0.44200
Cu57       Cu  0.14776344  0.68091730  0.46288731     0.42000
Cu58       Cu  0.13874637  0.59325045  0.41782412     0.43900
N59         N  0.20913231  0.53608401  0.43876607    -0.35100
N60         N  0.17824668  0.53780588  0.42243607    -0.29300
C61         C  0.17480448  0.49761790  0.41175286    -0.05400
C62         C  0.20478609  0.46924014  0.42202986     0.06800
C63         C  0.22607183  0.49480908  0.43901759     0.00600
H64         H  0.15040933  0.48903520  0.39847475     0.08200
H65         H  0.24990556  0.48354339  0.45165345     0.07300
N66         N  0.10653651  0.65401365  0.41682701    -0.36500
N67         N  0.11059853  0.68601839  0.43274495    -0.28700
C68         C  0.09072294  0.72292454  0.42509911    -0.03900
C69         C  0.07270610  0.71357143  0.40352879     0.04700
C70         C  0.08366458  0.66965743  0.39880464     0.02800
H71         H  0.09199014  0.75508944  0.43389593     0.07900
H72         H  0.07921775  0.65174059  0.38259896     0.06700
C73         C  0.91326342  0.95754436  0.80334806     0.86100
C74         C  0.91567168  0.99350054  0.78303386    -0.54100
C75         C  0.94983670  0.98769927  0.76720620     0.09000
C76         C  0.97197033  0.94575247  0.77414837     0.20000
C77         C  0.91802364  0.90711614  0.79353898    -0.54900
C78         C  0.95165913  0.90041589  0.77763038     0.09100
C79         C  0.96085333  0.96465304  0.81462364    -0.54400
C80         C  0.99488349  0.95878408  0.79922270     0.09700
H81         H  0.90077015  0.02607989  0.78542828     0.14200
H82         H  0.97358100  0.93697119  0.75580019     0.00000
H83         H  0.90514726  0.87920662  0.80335971     0.14500
H84         H  0.96800903  0.97211442  0.83252078     0.14300
C85         C  0.92123585  0.90916551  0.24340117     0.86100
C86         C  0.91805790  0.87186915  0.26312907    -0.54100
C87         C  0.94879925  0.87651197  0.28088111     0.09000
C88         C  0.97299085  0.91947651  0.27627689     0.20000
C89         C  0.92408028  0.95905852  0.25496504    -0.54900
C90         C  0.95432223  0.96491155  0.27298596     0.09100
C91         C  0.97051399  0.90501432  0.23491642    -0.54400
C92         C  0.00091945  0.90939633  0.25234355     0.09700
H93         H  0.90015508  0.84038219  0.26018545     0.14200
H94         H  0.97088627  0.92642271  0.29479011     0.00000
H95         H  0.91649808  0.98803065  0.24483801     0.14500
H96         H  0.98005529  0.89897025  0.21713035     0.14300
N97         N  0.72430398  0.94418744  0.96743612    -0.27700
N98         N  0.71333113  0.98112482  0.97870196    -0.35500
C99         C  0.72009961  0.97550702  0.00134621     0.00700
C100        C  0.73557052  0.93275026  0.00441966     0.06700
C101        C  0.73759597  0.91375686  0.98259595    -0.06400
H102        H  0.70944779  0.99867678  0.01468782     0.07400
H103        H  0.74539440  0.87948602  0.97820271     0.08600
Cu104      Cu  0.67620455  0.03031206  0.96339913     0.44200
Cu105      Cu  0.71717580  0.93684672  0.93216549     0.42000
Cu106      Cu  0.65534598  0.02271977  0.90241091     0.43900
N107        N  0.61988768  0.05580743  0.94759999    -0.35100
N108        N  0.61153701  0.05273268  0.92527720    -0.29300
C109        C  0.56802368  0.06231189  0.92150442    -0.05400
C110        C  0.54794565  0.07099707  0.94254709     0.06800
C111        C  0.58191853  0.06692311  0.95862152     0.00600
H112        H  0.55107417  0.05765748  0.90511844     0.08200
H113        H  0.57813987  0.06687869  0.97713205     0.07300
N114        N  0.70339285  0.98308752  0.88699238    -0.36500
N115        N  0.72393023  0.95044719  0.89759984    -0.28700
C116        C  0.75761795  0.93570765  0.88429535    -0.03900
C117        C  0.75876190  0.96058550  0.86456609     0.04700
C118        C  0.72375668  0.99010144  0.86669269     0.02800
H119        H  0.78259121  0.91222032  0.88974621     0.07900
H120        H  0.71661666  0.01756977  0.85550895     0.06700
N121        N  0.74066995  0.89282984  0.06296963    -0.27700
N122        N  0.71285416  0.86301401  0.05332742    -0.35500
C123        C  0.70917065  0.87136435  0.03078976     0.00700
C124        C  0.73542799  0.90856601  0.02609057     0.06700
C125        C  0.75463958  0.92172037  0.04687945    -0.06400
H126        H  0.68627296  0.85388099  0.01909162     0.07400
H127        H  0.77609292  0.95072250  0.05019633     0.08600
Cu128      Cu  0.67298246  0.81960713  0.07203987     0.44200
Cu129      Cu  0.75569188  0.89304417  0.09781268     0.42000
Cu130      Cu  0.67671093  0.83152992  0.13396079     0.43900
N131        N  0.62247505  0.79690436  0.09359509    -0.35100
N132        N  0.62253940  0.80291979  0.11618425    -0.29300
C133        C  0.58149723  0.79188968  0.12441214    -0.05400
C134        C  0.55444275  0.77837317  0.10605510     0.06800
C135        C  0.58165228  0.78176788  0.08685197     0.00600
H136        H  0.57136301  0.79615532  0.14217786     0.08200
H137        H  0.57156422  0.77717949  0.06906120     0.07300
N138        N  0.73574641  0.86191161  0.14598773    -0.36500
N139        N  0.76452575  0.88389907  0.13279633    -0.28700
C140        C  0.79989174  0.89798783  0.14564259    -0.03900
C141        C  0.79275819  0.88451211  0.16792418     0.04700
C142        C  0.75199852  0.86159802  0.16760388     0.02800
H143        H  0.82889063  0.91615257  0.13917188     0.07900
H144        H  0.73571665  0.84531160  0.18190302     0.06700
C145        C  0.04907749  0.03359841  0.30873469     0.86100
C146        C  0.08967460  0.02848433  0.29042962    -0.54100
C147        C  0.08433861  0.99508637  0.27399593     0.09000
C148        C  0.03779645  0.97714522  0.27781555     0.20000
C149        C  0.00091308  0.03438622  0.29537764    -0.54900
C150        C  0.99437522  0.00140284  0.27851560     0.09100
C151        C  0.04556995  0.98646417  0.31930046    -0.54400
C152        C  0.04022503  0.95354082  0.30308644     0.09700
H153        H  0.12261831  0.04361919  0.29361565     0.14200
H154        H  0.03428749  0.97614894  0.25907267     0.00000
H155        H  0.97145498  0.04796779  0.30379258     0.14500
H156        H  0.04761109  0.98005448  0.33758072     0.14300
C157        C  0.04664814  0.03161361  0.72518938     0.86100
C158        C  0.04895920  0.97983414  0.72471513    -0.54100
C159        C  0.04264969  0.96230600  0.74599218     0.09000
C160        C  0.03302708  0.00373850  0.76415977     0.20000
C161        C  0.99604785  0.03755867  0.73521450    -0.54900
C162        C  0.98835900  0.02061382  0.75682378     0.09100
C163        C  0.08370043  0.04554536  0.74448512    -0.54400
C164        C  0.07709539  0.02794136  0.76588211     0.09700
H165        H  0.05339519  0.95926598  0.70941826     0.14200
H166        H  0.02561113  0.01769172  0.78125315     0.00000
H167        H  0.96766013  0.03905374  0.72348936     0.14500
H168        H  0.11631204  0.05960133  0.73988233     0.14300
N169        N  0.21031467  0.20831574  0.56509666    -0.27700
N170        N  0.23636343  0.24449119  0.56462393    -0.35500
C171        C  0.25012508  0.25087683  0.54292721     0.00700
C172        C  0.23129957  0.21742410  0.52903100     0.06700
C173        C  0.20642343  0.19086055  0.54368782    -0.06400
H174        H  0.26850897  0.28025232  0.53737237     0.07400
H175        H  0.18420247  0.16317423  0.53892365     0.08600
Cu176      Cu  0.24159766  0.29000766  0.59178614     0.44200
Cu177      Cu  0.17513524  0.18963026  0.59395159     0.42000
Cu178      Cu  0.16433053  0.27503205  0.63906389     0.43900
N179        N  0.22773247  0.33924482  0.61609901    -0.35100
N180        N  0.19833703  0.33447450  0.63297413    -0.29300
C181        C  0.19210894  0.37442763  0.64336058    -0.05400
C182        C  0.21883233  0.40574911  0.63239522     0.06800
C183        C  0.24107101  0.38224443  0.61530324     0.00600
H184        H  0.16804550  0.38056566  0.65697086     0.08200
H185        H  0.26287434  0.39583601  0.60218157     0.07300
N186        N  0.13673474  0.21127349  0.64065109    -0.36500
N187        N  0.14142037  0.18012713  0.62444256    -0.28700
C188        C  0.12251763  0.14175437  0.63155600    -0.03900
C189        C  0.10444597  0.14934907  0.65309192     0.04700
C190        C  0.11442171  0.19357749  0.65846261     0.02800
H191        H  0.12298401  0.11038853  0.62201298     0.07900
H192        H  0.10817377  0.21098717  0.67459239     0.06700
N193        N  0.19861686  0.21432986  0.46893696    -0.27700
N194        N  0.23034467  0.24582459  0.46899288    -0.35500
C195        C  0.24964484  0.24854092  0.48985273     0.00700
C196        C  0.22885715  0.21759420  0.50378428     0.06700
C197        C  0.19691599  0.19604856  0.48991065    -0.06400
H198        H  0.27344942  0.27452706  0.49514242     0.07400
H199        H  0.17144261  0.17213985  0.49525117     0.08600
Cu200      Cu  0.23608791  0.29360681  0.44413410     0.44200
Cu201      Cu  0.15452049  0.20436572  0.44149048     0.42000
Cu202      Cu  0.15289925  0.29356962  0.39937511     0.43900
N203        N  0.22008534  0.34982545  0.42616444    -0.35100
N204        N  0.18875169  0.35044086  0.41001338    -0.29300
C205        C  0.18059401  0.39316874  0.40483816    -0.05400
C206        C  0.20783233  0.42059319  0.41860772     0.06800
C207        C  0.23253573  0.39194292  0.43181348     0.00600
H208        H  0.15433080  0.40348745  0.39327312     0.08200
H209        H  0.25506121  0.40097755  0.44586022     0.07300
N210        N  0.12038468  0.23205274  0.39478981    -0.36500
N211        N  0.12041512  0.20025712  0.41028248    -0.28700
C212        C  0.10090660  0.16322659  0.40111287    -0.03900
C213        C  0.08773914  0.17194624  0.37881709     0.04700
C214        C  0.10082656  0.21591707  0.37536185     0.02800
H215        H  0.09978057  0.13116310  0.40938705     0.07900
H216        H  0.10007607  0.23355933  0.35930375     0.06700
C217        C  0.12037284  0.97563646  0.82401161     0.86100
C218        C  0.06770771  0.97435800  0.82540862    -0.54100
C219        C  0.04821882  0.96334870  0.80465482     0.09000
C220        C  0.08885882  0.95556488  0.78594645     0.20000
C221        C  0.12916397  0.92528230  0.81481658    -0.54900
C222        C  0.11048694  0.91388747  0.79369613     0.09100
C223        C  0.12809356  0.01169232  0.80411508    -0.54400
C224        C  0.10898627  0.00105932  0.78311649     0.09700
H225        H  0.04769778  0.98036353  0.84064107     0.14200
H226        H  0.10183808  0.94760162  0.76875885     0.00000
H227        H  0.13668950  0.89928124  0.82691718     0.14500
H228        H  0.13586536  0.04632383  0.80860168     0.14300
C229        C  0.12973934  0.89503691  0.23428155     0.86100
C230        C  0.07808972  0.89726049  0.23005635    -0.54100
C231        C  0.05477757  0.90588917  0.24985582     0.09000
C232        C  0.09140350  0.91208858  0.27088062     0.20000
C233        C  0.13867175  0.94481845  0.24517997    -0.54900
C234        C  0.11584859  0.95437131  0.26539849     0.09100
C235        C  0.13329390  0.85807348  0.25395062    -0.54400
C236        C  0.10975087  0.86663536  0.27375562     0.09700
H237        H  0.06207406  0.89216371  0.21340016     0.14200
H238        H  0.10063008  0.91857652  0.28887960     0.00000
H239        H  0.14695742  0.97248048  0.23408284     0.14500
H240        H  0.14480467  0.82458010  0.25011958     0.14300
N241        N  0.42541212  0.06314062  0.94351954    -0.27700
N242        N  0.43580486  0.05024527  0.96443948    -0.35500
C243        C  0.48040039  0.05440069  0.96762524     0.00700
C244        C  0.49944831  0.06998442  0.94760890     0.06700
C245        C  0.46366210  0.07511822  0.93257632    -0.06400
H246        H  0.49798472  0.04284029  0.98263867     0.07400
H247        H  0.46551296  0.08454898  0.91472225     0.08600
Cu248      Cu  0.39180411  0.01651494  0.98542254     0.44200
Cu249      Cu  0.35963879  0.05872004  0.93111633     0.42000
Cu250      Cu  0.27575348  0.00792237  0.97021683     0.43900
N251        N  0.34802243  0.97048496  0.99935231    -0.35100
N252        N  0.30437670  0.96881788  0.99493305    -0.29300
C253        C  0.28598181  0.93293274  0.00515844    -0.05400
C254        C  0.32015323  0.91053627  0.01591449     0.06800
C255        C  0.35895363  0.93522199  0.01196067     0.00600
H256        H  0.25106948  0.92232553  0.00355804     0.08200
H257        H  0.39280725  0.92764465  0.01738700     0.07300
N258        N  0.26168568  0.03013068  0.93759942    -0.36500
N259        N  0.29172533  0.04770766  0.92344185    -0.28700
C260        C  0.27284581  0.05093473  0.90252769    -0.03900
C261        C  0.22896183  0.03440378  0.90345050     0.04700
C262        C  0.22327802  0.02133180  0.92597610     0.02800
H263        H  0.29090320  0.06130769  0.88732362     0.07900
H264        H  0.19489490  0.00281893  0.93286937     0.06700
N265        N  0.43299529  0.77683835  0.11472379    -0.27700
N266        N  0.43577203  0.76852292  0.09234225    -0.35500
C267        C  0.47912769  0.76433994  0.08641775     0.00700
C268        C  0.50531799  0.77075140  0.10586560     0.06700
C269        C  0.47500611  0.77823056  0.12360607    -0.06400
H270        H  0.49079850  0.76141137  0.06884062     0.07400
H271        H  0.48301995  0.78771502  0.14121281     0.08600
Cu272      Cu  0.38450017  0.77748977  0.06912605     0.44200
Cu273      Cu  0.37284045  0.79381222  0.13103855     0.42000
Cu274      Cu  0.28026125  0.81160850  0.09089616     0.43900
N275        N  0.34029183  0.81395807  0.05008719    -0.35100
N276        N  0.30059711  0.82600339  0.05800771    -0.29300
C277        C  0.28483290  0.85906921  0.04509399    -0.05400
C278        C  0.31676070  0.86891130  0.02862530     0.06800
C279        C  0.35132645  0.83952017  0.03216313     0.00600
H280        H  0.25598091  0.87898775  0.04959857     0.08200
H281        H  0.38431427  0.84051975  0.02427132     0.07300
N282        N  0.27439182  0.81643162  0.12613972    -0.36500
N283        N  0.30799098  0.81223110  0.14089474    -0.28700
C284        C  0.29327659  0.82363425  0.16209851    -0.03900
C285        C  0.24850768  0.83548975  0.16036189     0.04700
C286        C  0.23762755  0.83019270  0.13743919     0.02800
H287        H  0.31376514  0.82396143  0.17751130     0.07900
H288        H  0.20589093  0.83782470  0.12936400     0.06700
C289        C  0.17997524  0.82652172  0.18376510    -0.20700
C290        C  0.21830366  0.85201761  0.17859323    -0.07300
C291        C  0.22587864  0.89331580  0.19000608     0.13600
C292        C  0.19567698  0.90737697  0.20712339    -0.20700
C293        C  0.15761685  0.88121951  0.21323726    -0.07300
C294        C  0.14981879  0.83986679  0.20100977     0.13600
C295        C  0.11143027  0.80734247  0.20559125    -0.24100
H296        H  0.17409233  0.79505942  0.17458193     0.14900
H297        H  0.20343298  0.93833821  0.21619687     0.14900
C298        C  0.26547498  0.92295452  0.18389094    -0.24000
H299        H  0.12540851  0.77448588  0.21012498     0.05100
H300        H  0.09067810  0.80287117  0.18977596     0.08400
H301        H  0.08869758  0.81701454  0.21969761     0.08400
H302        H  0.26405333  0.93097528  0.16533048     0.08300
H303        H  0.29741522  0.90575910  0.18755500     0.08300
H304        H  0.26564372  0.95490352  0.19391705     0.05100
C305        C  0.12721698  0.00737924  0.86512366    -0.20700
C306        C  0.14800964  0.98892412  0.84539944    -0.07300
C307        C  0.19592292  0.98747792  0.84495415     0.13600
C308        C  0.22081280  0.00345455  0.86397970    -0.20700
C309        C  0.19992129  0.02142627  0.88356278    -0.07300
C310        C  0.15242345  0.02417427  0.88395575     0.13600
C311        C  0.12701167  0.04662168  0.90329271    -0.24100
H312        H  0.09119793  0.01102388  0.86584075     0.14900
H313        H  0.25717718  0.00092619  0.86371402     0.14900
C314        C  0.22188790  0.96903222  0.82463335    -0.24000
H315        H  0.10551104  0.07303935  0.89618283     0.05100
H316        H  0.14923852  0.06315162  0.91628884     0.08400
H317        H  0.10510229  0.02164775  0.91193818     0.08400
H318        H  0.21314669  0.98667339  0.80869616     0.08300
H319        H  0.21502848  0.93273016  0.82240047     0.08300
H320        H  0.25886356  0.97314085  0.82706337     0.05100
C321        C  0.11145973  0.07844289  0.67348281    -0.20700
C322        C  0.08571538  0.11575988  0.66869140    -0.07300
C323        C  0.04387702  0.12136401  0.67956433     0.13600
C324        C  0.03018782  0.09110887  0.69632947    -0.20700
C325        C  0.05723842  0.05502311  0.70264455    -0.07300
C326        C  0.09809915  0.04789886  0.69026684     0.13600
C327        C  0.12875432  0.00905345  0.69444657    -0.24100
H328        H  0.14319420  0.07411275  0.66456323     0.14900
H329        H  0.99932975  0.09803205  0.70542256     0.14900
C330        C  0.01351621  0.15929985  0.67356785    -0.24000
H331        H  0.11223617  0.97745290  0.68852531     0.05100
H332        H  0.13832691  0.00692077  0.71279327     0.08400
H333        H  0.16061411  0.01202376  0.68454586     0.08400
H334        H  0.00623846  0.15822786  0.65481901     0.08300
H335        H  0.02978466  0.19178923  0.67829388     0.08300
H336        H  0.98088173  0.15727622  0.68284667     0.05100
C337        C  0.10446027  0.10105291  0.35885554    -0.20700
C338        C  0.07649703  0.13790665  0.36085791    -0.07300
C339        C  0.03961445  0.14146326  0.34575128     0.13600
C340        C  0.03159088  0.10770127  0.32897183    -0.20700
C341        C  0.05932683  0.06996088  0.32699358    -0.07300
C342        C  0.09713195  0.06746133  0.34216090     0.13600
C343        C  0.13147071  0.03066060  0.34185686    -0.24100
H344        H  0.13320932  0.09878544  0.37030307     0.14900
H345        H  0.00364909  0.11154361  0.31730089     0.14900
C346        C  0.00786763  0.18003731  0.34776905    -0.24000
H347        H  0.16556546  0.04551278  0.33916419     0.05100
H348        H  0.12663199  0.00458546  0.32843723     0.08400
H349        H  0.13108586  0.01380038  0.35871139     0.08400
H350        H  0.02613196  0.21187560  0.34444560     0.08300
H351        H  0.99320376  0.18134461  0.36533035     0.08300
H352        H  0.97971348  0.17679536  0.33520704     0.05100
C353        C  0.85537755  0.85766348  0.19150446    -0.20700
C354        C  0.82380915  0.89057279  0.18749766    -0.07300
C355        C  0.82251646  0.92863787  0.20196101     0.13600
C356        C  0.85341430  0.93322280  0.22017885    -0.20700
C357        C  0.88675941  0.90111478  0.22403526    -0.07300
C358        C  0.88670582  0.86194593  0.20953640     0.13600
C359        C  0.91864139  0.82348663  0.21187021    -0.24100
H360        H  0.85570559  0.82824643  0.18031465     0.14900
H361        H  0.85072590  0.96214267  0.23142993     0.14900
C362        C  0.78851174  0.96449790  0.19807648    -0.24000
H363        H  0.89885498  0.79206256  0.21414725     0.05100
H364        H  0.94225331  0.82634960  0.22647604     0.08400
H365        H  0.93897613  0.82018149  0.19592191     0.08400
H366        H  0.75390952  0.95010808  0.19943503     0.08300
H367        H  0.79319734  0.97848876  0.18066855     0.08300
H368        H  0.79203314  0.99232512  0.21089654     0.05100
C369        C  0.87609107  0.97967346  0.84134231    -0.20700
C370        C  0.87174327  0.96289461  0.81860871    -0.07300
C371        C  0.82777176  0.95104769  0.81037779     0.13600
C372        C  0.79118452  0.95155648  0.82568109    -0.20700
C373        C  0.79709608  0.96430443  0.84873217    -0.07300
C374        C  0.83946757  0.98039842  0.85644150     0.13600
C375        C  0.84604791  0.99946886  0.88046631    -0.24100
H376        H  0.90772449  0.99293390  0.84768845     0.14900
H377        H  0.75794920  0.94095498  0.81979268     0.14900
C378        C  0.81853534  0.93769224  0.78559461    -0.24000
H379        H  0.88088181  0.01264300  0.88324664     0.05100
H380        H  0.83978591  0.97332978  0.89338128     0.08400
H381        H  0.82251079  0.02739210  0.88344629     0.08400
H382        H  0.83502936  0.90588241  0.78103923     0.08300
H383        H  0.83037352  0.96438468  0.77398616     0.08300
H384        H  0.78193466  0.93241726  0.78231118     0.05100
C385        C  0.08700553  0.75692971  0.73874114    -0.20700
C386        C  0.05677519  0.79034000  0.73247888    -0.07300
C387        C  0.03516266  0.78623926  0.71060679     0.13600
C388        C  0.04966093  0.75361144  0.69482161    -0.20700
C389        C  0.08285247  0.72310973  0.70053504    -0.07300
C390        C  0.10046101  0.72357871  0.72312788     0.13600
C391        C  0.13507968  0.69068970  0.73075111    -0.24100
H392        H  0.10086280  0.75678104  0.75594973     0.14900
H393        H  0.03504705  0.75216596  0.67769618     0.14900
C394        C  0.99719273  0.81524179  0.70272678    -0.24000
H395        H  0.14758742  0.69847206  0.74842436     0.05100
H396        H  0.16452398  0.69143494  0.71900297     0.08400
H397        H  0.11992871  0.65662810  0.73102226     0.08400
H398        H  0.00813816  0.83427833  0.68744442     0.08300
H399        H  0.98516909  0.83928890  0.71583504     0.08300
H400        H  0.96780375  0.79364690  0.69779219     0.05100
C401        C  0.01110934  0.76969492  0.35498542    -0.20700
C402        C  0.04178931  0.80443497  0.34939592    -0.07300
C403        C  0.08091796  0.81074631  0.36355400     0.13600
C404        C  0.08788107  0.78232153  0.38204852    -0.20700
C405        C  0.05868559  0.74639330  0.38640764    -0.07300
C406        C  0.01929788  0.74051399  0.37309491     0.13600
C407        C  0.98578308  0.70347007  0.37794202    -0.24100
H408        H  0.98164376  0.76310738  0.34447346     0.14900
H409        H  0.11825716  0.78656894  0.39232643     0.14900
C410        C  0.11807016  0.84498271  0.35960888    -0.24000
H411        H  0.95579254  0.70482587  0.36654331     0.05100
H412        H  0.97409256  0.70637302  0.39603738     0.08400
H413        H  0.00145771  0.67050136  0.37511155     0.08400
H414        H  0.11436174  0.86515013  0.34412013     0.08300
H415        H  0.15068826  0.82766529  0.35775710     0.08300
H416        H  0.12037136  0.86819344  0.37471008     0.05100
loop_ 
_geom_bond_atom_site_label_1 
_geom_bond_atom_site_label_2 
_geom_bond_distance 
_geom_bond_site_symmetry_2 
_ccdc_geom_bond_type 
C1            C2   1.555       .  S
C1            C7   1.611       .  S
C1            C5   1.626   1_455  S
C1          C402   1.532       .  S
C2            H9   1.085       .  S
C2            C3   1.366       .  D
C3            C4   1.641       .  S
C3          C152   1.611       .  S
C4            C8   1.487       .  S
C4            C6   1.490   1_455  S
C4           H10   1.094       .  S
C5           H11   1.085       .  S
C5            C6   1.385       .  D
C6           C87   1.624       .  S
C7           H12   1.085       .  S
C7            C8   1.371       .  D
C8          C236   1.610       .  S
C13          C14   1.624       .  S
C13          C19   1.554       .  S
C13          C17   1.612   1_455  S
C13         C386   1.527       .  S
C14          H21   1.085       .  S
C14          C15   1.381       .  D
C15          C16   1.490       .  S
C15         C222   1.620       .  S
C16          C20   1.644       .  S
C16          C18   1.489   1_455  S
C16          H22   1.094       .  S
C17          H23   1.085       .  S
C17          C18   1.378       .  D
C18          C78   1.615       .  S
C19          H24   1.085       .  S
C19          C20   1.361       .  D
C20         C159   1.611       .  S
N25          N26   1.321       .  A
N25          C29   1.348       .  A
N25         Cu33   2.077       .  S
N26          C27   1.340       .  A
N26         Cu32   2.061       .  S
C27          C28   1.382       .  A
C27          H30   1.082       .  S
C28          C29   1.387       .  A
C28          C52   1.473       .  S
C29          H31   1.082       .  S
Cu32         N35   2.062       .  S
Cu33         N43   2.078       .  S
Cu34         N36   2.065       .  S
Cu34         N42   2.066       .  S
N35          N36   1.320       .  A
N35          C39   1.341       .  A
N36          C37   1.346       .  A
C37          C38   1.384       .  A
C37          H40   1.082       .  S
C38          C39   1.381       .  A
C38         C182   1.469       .  S
C39          H41   1.082       .  S
N42          N43   1.323       .  A
N42          C46   1.343       .  A
N43          C44   1.343       .  A
C44          C45   1.384       .  A
C44          H47   1.082       .  S
C45          C46   1.382       .  A
C45         C389   1.477       .  S
C46          H48   1.080       .  S
N49          N50   1.321       .  A
N49          C53   1.348       .  A
N49         Cu57   2.077       .  S
N50          C51   1.341       .  A
N50         Cu56   2.067       .  S
C51          C52   1.383       .  A
C51          H54   1.082       .  S
C52          C53   1.386       .  A
C53          H55   1.082       .  S
Cu56         N59   2.068       .  S
Cu57         N67   2.079       .  S
Cu58         N60   2.071       .  S
Cu58         N66   2.072       .  S
N59          N60   1.321       .  A
N59          C63   1.343       .  A
N60          C61   1.346       .  A
C61          C62   1.384       .  A
C61          H64   1.082       .  S
C62          C63   1.383       .  A
C62         C206   1.471       .  S
C63          H65   1.082       .  S
N66          N67   1.323       .  A
N66          C70   1.344       .  A
N67          C68   1.345       .  A
C68          C69   1.384       .  A
C68          H71   1.082       .  S
C69          C70   1.383       .  A
C69         C405   1.477       .  S
C70          H72   1.082       .  S
C73          C74   1.614       .  S
C73          C79   1.566       .  S
C73          C77   1.613       .  S
C73         C370   1.528       .  S
C74          H81   1.085   1_565  S
C74          C75   1.381       .  D
C75          C76   1.490       .  S
C75         C162   1.621   1_565  S
C76          C80   1.645       .  S
C76          C78   1.493       .  S
C76          H82   1.095       .  S
C77          H83   1.085       .  S
C77          C78   1.377       .  D
C79          H84   1.080       .  S
C79          C80   1.362       .  D
C80         C219   1.617   1_655  S
C85          C86   1.618       .  S
C85          C91   1.551       .  S
C85          C89   1.627       .  S
C85         C357   1.533       .  S
C86          H93   1.085       .  S
C86          C87   1.380       .  D
C87          C88   1.491       .  S
C88          C92   1.646   1_655  S
C88          C90   1.494       .  S
C88          H94   1.094       .  S
C89          H95   1.084       .  S
C89          C90   1.385       .  D
C90         C150   1.628   1_565  S
C91          H96   1.085       .  S
C91          C92   1.359   1_655  D
C92         C231   1.611       .  S
N97          N98   1.321       .  A
N97         C101   1.343       .  A
N97        Cu105   2.068       .  S
N98          C99   1.345   1_556  A
N98        Cu104   2.069   1_565  S
C99         C100   1.383       .  A
C99         H102   1.082       .  S
C100        C101   1.382   1_554  A
C100        C124   1.465       .  S
C101        H103   1.082       .  S
Cu104       N107   2.071       .  S
Cu105       N115   2.067       .  S
Cu106       N108   2.066       .  S
Cu106       N114   2.066   1_545  S
N107        N108   1.322       .  A
N107        C111   1.341       .  A
N108        C109   1.347       .  A
C109        C110   1.384       .  A
C109        H112   1.082       .  S
C110        C111   1.382       .  A
C110        C244   1.470       .  S
C111        H113   1.082       .  S
N114        N115   1.323       .  A
N114        C118   1.345       .  A
N115        C116   1.341       .  A
C116        C117   1.379       .  A
C116        H119   1.082       .  S
C117        C118   1.380       .  A
C117        C373   1.469       .  S
C118        H120   1.082   1_565  S
N121        N122   1.322       .  A
N121        C125   1.347       .  A
N121       Cu129   2.073       .  S
N122        C123   1.343       .  A
N122       Cu128   2.068       .  S
C123        C124   1.380       .  A
C123        H126   1.082       .  S
C124        C125   1.383       .  A
C125        H127   1.082       .  S
Cu128       N131   2.069       .  S
Cu129       N139   2.074       .  S
Cu130       N132   2.074       .  S
Cu130       N138   2.074       .  S
N131        N132   1.322       .  A
N131        C135   1.342       .  A
N132        C133   1.347       .  A
C133        C134   1.384       .  A
C133        H136   1.082       .  S
C134        C135   1.383       .  A
C134        C268   1.472       .  S
C135        H137   1.082       .  S
N138        N139   1.324       .  A
N138        C142   1.345       .  A
N139        C140   1.344       .  A
C140        C141   1.379       .  A
C140        H143   1.082       .  S
C141        C142   1.380       .  A
C141        C354   1.470       .  S
C142        H144   1.082       .  S
C145        C146   1.616       .  S
C145        C151   1.552   1_545  S
C145        C149   1.627       .  S
C145        C341   1.532       .  S
C146        H153   1.085       .  S
C146        C147   1.377   1_545  D
C147        C148   1.492       .  S
C147        C234   1.622       .  S
C148        C152   1.644       .  S
C148        C150   1.491   1_465  S
C148        H154   1.094       .  S
C149        H155   1.084   1_455  S
C149        C150   1.389   1_455  D
C151        H156   1.085       .  S
C151        C152   1.358       .  D
C157        C158   1.553   1_545  S
C157        C163   1.614       .  S
C157        C161   1.623   1_455  S
C157        C325   1.528       .  S
C158        H165   1.081       .  S
C158        C159   1.364       .  D
C159        C160   1.643   1_565  S
C160        C164   1.486       .  S
C160        C162   1.492   1_455  S
C160        H166   1.095       .  S
C161        H167   1.085       .  S
C161        C162   1.381       .  D
C163        H168   1.085       .  S
C163        C164   1.373       .  D
C164        C224   1.613       .  S
N169        N170   1.320       .  A
N169        C173   1.344       .  A
N169       Cu177   2.058       .  S
N170        C171   1.342       .  A
N170       Cu176   2.070       .  S
C171        C172   1.384       .  A
C171        H174   1.082       .  S
C172        C173   1.382       .  A
C172        C196   1.469       .  S
C173        H175   1.082       .  S
Cu176       N179   2.070       .  S
Cu177       N187   2.058       .  S
Cu178       N180   2.067       .  S
Cu178       N186   2.068       .  S
N179        N180   1.322       .  A
N179        C183   1.342       .  A
N180        C181   1.346       .  A
C181        C182   1.383       .  A
C181        H184   1.082       .  S
C182        C183   1.382       .  A
C183        H185   1.082       .  S
N186        N187   1.322       .  A
N186        C190   1.342       .  A
N187        C188   1.342       .  A
C188        C189   1.379       .  A
C188        H191   1.082       .  S
C189        C190   1.382       .  A
C189        C322   1.469       .  S
C190        H192   1.082       .  S
N193        N194   1.321       .  A
N193        C197   1.346       .  A
N193       Cu201   2.076       .  S
N194        C195   1.341       .  A
N194       Cu200   2.058       .  S
C195        C196   1.380       .  A
C195        H198   1.082       .  S
C196        C197   1.386       .  A
C197        H199   1.082       .  S
Cu200       N203   2.060       .  S
Cu201       N211   2.077       .  S
Cu202       N204   2.076       .  S
Cu202       N210   2.077       .  S
N203        N204   1.321       .  A
N203        C207   1.343       .  A
N204        C205   1.346       .  A
C205        C206   1.385       .  A
C205        H208   1.082       .  S
C206        C207   1.382       .  A
C207        H209   1.082       .  S
N210        N211   1.323       .  A
N210        C214   1.346       .  A
N211        C212   1.343       .  A
C212        C213   1.384       .  A
C212        H215   1.082       .  S
C213        C214   1.385       .  A
C213        C338   1.479       .  S
C214        H216   1.082       .  S
C217        C218   1.565       .  S
C217        C223   1.611   1_565  S
C217        C221   1.616       .  S
C217        C306   1.531       .  S
C218        H225   1.081       .  S
C218        C219   1.369       .  D
C219        C220   1.642       .  S
C220        C224   1.490   1_565  S
C220        C222   1.491       .  S
C220        H226   1.095       .  S
C221        H227   1.085       .  S
C221        C222   1.381       .  D
C223        H228   1.085       .  S
C223        C224   1.375       .  D
C229        C230   1.555       .  S
C229        C235   1.611       .  S
C229        C233   1.626       .  S
C229        C293   1.532       .  S
C230        H237   1.085       .  S
C230        C231   1.366       .  D
C231        C232   1.640       .  S
C232        C236   1.487       .  S
C232        C234   1.488       .  S
C232        H238   1.094       .  S
C233        H239   1.085       .  S
C233        C234   1.385       .  D
C235        H240   1.085       .  S
C235        C236   1.370       .  D
N241        N242   1.321       .  A
N241        C245   1.349       .  A
N241       Cu249   2.081       .  S
N242        C243   1.340       .  A
N242       Cu248   2.054       .  S
C243        C244   1.380       .  A
C243        H246   1.082       .  S
C244        C245   1.387       .  A
C245        H247   1.082       .  S
Cu248       N251   2.056   1_545  S
Cu249       N259   2.083       .  S
Cu250       N252   2.062   1_545  S
Cu250       N258   2.065       .  S
N251        N252   1.320       .  A
N251        C255   1.341   1_556  A
N252        C253   1.346   1_556  A
C253        C254   1.381       .  A
C253        H256   1.082       .  S
C254        C255   1.379       .  A
C254        C278   1.463       .  S
C255        H257   1.082       .  S
N258        N259   1.323       .  A
N258        C262   1.344       .  A
N259        C260   1.344       .  A
C260        C261   1.387       .  A
C260        H263   1.082       .  S
C261        C262   1.383       .  A
C261        C309   1.483       .  S
C262        H264   1.082       .  S
N265        N266   1.323       .  A
N265        C269   1.349       .  A
N265       Cu273   2.089       .  S
N266        C267   1.340       .  A
N266       Cu272   2.057       .  S
C267        C268   1.379       .  A
C267        H270   1.082       .  S
C268        C269   1.387       .  A
C269        H271   1.082       .  S
Cu272       N275   2.057       .  S
Cu273       N283   2.090       .  S
Cu274       N276   2.057       .  S
Cu274       N282   2.059       .  S
N275        N276   1.319       .  A
N275        C279   1.342       .  A
N276        C277   1.344       .  A
C277        C278   1.380       .  A
C277        H280   1.082       .  S
C278        C279   1.381       .  A
C279        H281   1.082       .  S
N282        N283   1.324       .  A
N282        C286   1.342       .  A
N283        C284   1.348       .  A
C284        C285   1.386       .  A
C284        H287   1.082       .  S
C285        C286   1.376       .  A
C285        C290   1.473       .  S
C286        H288   1.082       .  S
C289        C290   1.395       .  A
C289        C294   1.402       .  A
C289        H296   1.085       .  S
C290        C291   1.407       .  A
C291        C298   1.507       .  S
C291        C292   1.404       .  A
C292        C293   1.413       .  A
C292        H297   1.079       .  S
C293        C294   1.431       .  A
C294        C295   1.513       .  S
C295        H299   1.111       .  S
C295        H300   1.110       .  S
C295        H301   1.100       .  S
C298        H302   1.111       .  S
C298        H303   1.109       .  S
C298        H304   1.111       .  S
C305        C306   1.411   1_545  A
C305        C310   1.405       .  A
C305        H312   1.077       .  S
C306        C307   1.424       .  A
C307        C314   1.512       .  S
C307        C308   1.401   1_565  A
C308        C309   1.400       .  A
C308        H313   1.084       .  S
C309        C310   1.414       .  A
C310        C311   1.509       .  S
C311        H315   1.111       .  S
C311        H316   1.106       .  S
C311        H317   1.110       .  S
C314        H318   1.108       .  S
C314        H319   1.108       .  S
C314        H320   1.111       .  S
C321        C322   1.397       .  A
C321        C326   1.403       .  A
C321        H328   1.085       .  S
C322        C323   1.406       .  A
C323        C330   1.508       .  S
C323        C324   1.399       .  A
C324        C325   1.412       .  A
C324        H329   1.080   1_455  S
C325        C326   1.428       .  A
C326        C327   1.513       .  S
C327        H331   1.107   1_545  S
C327        H332   1.106       .  S
C327        H333   1.111       .  S
C330        H334   1.110       .  S
C330        H335   1.108       .  S
C330        H336   1.111   1_455  S
C337        C338   1.396       .  A
C337        C342   1.398       .  A
C337        H344   1.085       .  S
C338        C339   1.409       .  A
C339        C346   1.507       .  S
C339        C340   1.408       .  A
C340        C341   1.413       .  A
C340        H345   1.080       .  S
C341        C342   1.430       .  A
C342        C343   1.514       .  S
C343        H347   1.111       .  S
C343        H348   1.101       .  S
C343        H349   1.111       .  S
C346        H350   1.109       .  S
C346        H351   1.110   1_455  S
C346        H352   1.111   1_455  S
C353        C354   1.395       .  A
C353        C358   1.403       .  A
C353        H360   1.085       .  S
C354        C355   1.405       .  A
C355        C362   1.507       .  S
C355        C356   1.403       .  A
C356        C357   1.413       .  A
C356        H361   1.079       .  S
C357        C358   1.431       .  A
C358        C359   1.513       .  S
C359        H363   1.111       .  S
C359        H364   1.101       .  S
C359        H365   1.111       .  S
C362        H366   1.110       .  S
C362        H367   1.110       .  S
C362        H368   1.111       .  S
C369        C370   1.410       .  A
C369        C374   1.398       .  A
C369        H376   1.075       .  S
C370        C371   1.426       .  A
C371        C378   1.511       .  S
C371        C372   1.405       .  A
C372        C373   1.396       .  A
C372        H377   1.084       .  S
C373        C374   1.408       .  A
C374        C375   1.510       .  S
C375        H379   1.111   1_565  S
C375        H380   1.108       .  S
C375        H381   1.110   1_565  S
C378        H382   1.107       .  S
C378        H383   1.109       .  S
C378        H384   1.111       .  S
C385        C386   1.408       .  A
C385        C390   1.400       .  A
C385        H392   1.081       .  S
C386        C387   1.425       .  A
C387        C394   1.511   1_455  S
C387        C388   1.401       .  A
C388        C389   1.399       .  A
C388        H393   1.085       .  S
C389        C390   1.412       .  A
C390        C391   1.508       .  S
C391        H395   1.111       .  S
C391        H396   1.110       .  S
C391        H397   1.108       .  S
C394        H398   1.110   1_655  S
C394        H399   1.102       .  S
C394        H400   1.111       .  S
C401        C402   1.413       .  A
C401        C406   1.404       .  A
C401        H408   1.079   1_455  S
C402        C403   1.430       .  A
C403        C410   1.513       .  S
C403        C404   1.401       .  A
C404        C405   1.397       .  A
C404        H409   1.085       .  S
C405        C406   1.408       .  A
C406        C407   1.508   1_455  S
C407        H411   1.111       .  S
C407        H412   1.110       .  S
C407        H413   1.108   1_655  S
C410        H414   1.100       .  S
C410        H415   1.111       .  S
C410        H416   1.110       .  S
