geometry optimzed in LAMMPS
_audit_creation_date              2020-12-01 
_audit_creation_method            'lammps2cif' 
_symmetry_space_group_name_H-M    'P1' 
_symmetry_Int_Tables_number       1 
_symmetry_cell_setting            triclinic 
loop_ 
_symmetry_equiv_pos_as_xyz 
  x,y,z 
_cell_length_a                    43.9557627 
_cell_length_b                    42.92510831747245 
_cell_length_c                    44.23729304252943 
_cell_angle_alpha                 90.18237874211172 
_cell_angle_beta                  90.12854658654351 
_cell_angle_gamma                 90.17287430714944 
loop_ 
_atom_site_label 
_atom_site_type_symbol 
_atom_site_fract_x 
_atom_site_fract_y 
_atom_site_fract_z 
_atom_site_charge 
N1          N  0.22512535  0.30433323  0.25361235    -0.27500
N2          N  0.21282251  0.28795034  0.27565421    -0.35300
C3          C  0.18827288  0.30302470  0.28627776     0.00900
C4          C  0.18466001  0.33027310  0.26996496     0.06900
C5          C  0.20856033  0.33028777  0.24944345    -0.06200
H6          H  0.17344984  0.29407527  0.30374448     0.07600
H7          H  0.21334890  0.34759068  0.23238178     0.08800
Cu8        Cu  0.22902246  0.24485954  0.28837279     0.44200
Cu9        Cu  0.26299803  0.28905824  0.22957697     0.42000
Cu10       Cu  0.29419863  0.21207073  0.24936532     0.43900
N11         N  0.24761365  0.20205175  0.29845871    -0.34900
N12         N  0.27158509  0.18971431  0.28503257    -0.29100
C13         C  0.27774008  0.16215613  0.29836057    -0.05200
C14         C  0.25637553  0.15697455  0.32102746     0.07000
C15         C  0.23779875  0.18289087  0.32025673     0.00800
H16         H  0.29635810  0.14708180  0.29203190     0.08500
H17         H  0.21889624  0.18807069  0.33504617     0.07500
N18         N  0.31093019  0.24054420  0.21459288    -0.36300
N19         N  0.29978200  0.26827516  0.20781821    -0.28500
C20         C  0.31539362  0.28013096  0.18433680    -0.03700
C21         C  0.33750568  0.25894042  0.17556394     0.04900
C22         C  0.33388767  0.23411332  0.19541550     0.03000
H23         H  0.31044683  0.30237630  0.17406585     0.08100
H24         H  0.34693110  0.21281574  0.19597584     0.06900
O25         O  0.03476641  0.52766843  0.22566609    -0.73100
O26         O  0.97274203  0.45752859  0.22376875    -0.74100
O27         O  0.97016738  0.52402267  0.22370425    -0.62700
O28         O  0.03785801  0.46183875  0.22519897    -0.71100
O29         O  0.03719418  0.46138230  0.27530432    -0.70700
O30         O  0.96912109  0.52449426  0.27379047    -0.61900
O31         O  0.97255581  0.45815826  0.27385129    -0.74500
O32         O  0.03333275  0.52730726  0.27575953    -0.73200
Cu33       Cu  0.00387109  0.49270365  0.22281755     1.04600
Cu34       Cu  0.00293864  0.49276490  0.27637171     1.04300
C35         C  0.04378034  0.53848736  0.25117231     0.93100
C36         C  0.96290594  0.44675227  0.24889453     0.92200
C37         C  0.95921010  0.53455843  0.24842233     0.84400
C38         C  0.04871313  0.45219316  0.25029162     0.90600
N39         N  0.71883722  0.73439779  0.21007414    -0.27500
N40         N  0.70720239  0.76146524  0.21852953    -0.35300
C41         C  0.68224204  0.76714466  0.20159988     0.00900
C42         C  0.67772331  0.74229430  0.18185376     0.06900
C43         C  0.70143393  0.72207414  0.18798398    -0.06200
H44         H  0.66797835  0.78749197  0.20402863     0.07600
H45         H  0.70587576  0.69996573  0.17705006     0.08800
Cu46       Cu  0.72488332  0.78839108  0.25419563     0.44200
Cu47       Cu  0.75756808  0.71421728  0.22882547     0.42000
Cu48       Cu  0.78968065  0.75204928  0.29257394     0.43900
N49         N  0.74692756  0.80735747  0.29217791    -0.34900
N50         N  0.77042782  0.79384900  0.30542394    -0.29100
C51         C  0.77957656  0.81121276  0.32901947    -0.05200
C52         C  0.76104383  0.83709793  0.33115230     0.07000
C53         C  0.74044318  0.83381916  0.30740768     0.00800
H54         H  0.79812878  0.80493167  0.34387073     0.08500
H55         H  0.72219975  0.84954354  0.30150568     0.07500
N56         N  0.80643051  0.71038675  0.27628088    -0.36300
N57         N  0.79500729  0.69663091  0.25204689    -0.28500
C58         C  0.81134977  0.67090205  0.24603723    -0.03700
C59         C  0.83412746  0.66824729  0.26767693     0.04900
C60         C  0.83014057  0.69371101  0.28658345     0.03000
H61         H  0.80689039  0.65527875  0.22730802     0.08100
H62         H  0.84396347  0.70020467  0.30588238     0.06900
O63         O  0.24634762  0.96125322  0.47025071    -0.73100
O64         O  0.24844922  0.03295649  0.52866407    -0.74100
O65         O  0.24838031  0.96707746  0.53385250    -0.62700
O66         O  0.24716117  0.02664566  0.46482223    -0.71100
O67         O  0.19673844  0.02732582  0.46536724    -0.70700
O68         O  0.19796865  0.96652666  0.53516048    -0.61900
O69         O  0.19803239  0.03315916  0.52953469    -0.74500
O70         O  0.19591421  0.96106271  0.47121729    -0.73200
Cu71       Cu  0.24924729  0.99698883  0.49941626     1.04600
Cu72       Cu  0.19533430  0.99706054  0.50042929     1.04300
C73         C  0.22092446  0.94987248  0.46137999     0.93100
C74         C  0.22349904  0.04462379  0.53818637     0.92200
C75         C  0.22361585  0.95688783  0.54518233     0.84400
C76         C  0.22201480  0.03634949  0.45394106     0.90600
O77         O  0.72031259  0.03743699  0.53968795    -0.73100
O78         O  0.71930855  0.97930268  0.46893491    -0.74100
O79         O  0.71941371  0.97137420  0.53315062    -0.62700
O80         O  0.72102130  0.04509161  0.47550350    -0.71100
O81         O  0.77140637  0.04404260  0.47608519    -0.70700
O82         O  0.76979452  0.97182106  0.53302445    -0.61900
O83         O  0.76972289  0.97810721  0.46906806    -0.74500
O84         O  0.77071602  0.03768765  0.54026015    -0.73200
Cu85       Cu  0.71826545  0.00836412  0.50432033     1.04600
Cu86       Cu  0.77213500  0.00789408  0.50461587     1.04300
C87         C  0.74535622  0.04676709  0.55135142     0.93100
C88         C  0.74422818  0.96941762  0.45773225     0.92200
C89         C  0.74476560  0.96003028  0.54222540     0.84400
C90         C  0.74661797  0.05598128  0.46652490     0.90600
N91         N  0.21449711  0.71558111  0.74380493    -0.27500
N92         N  0.22780440  0.70215629  0.76714782    -0.35300
C93         C  0.21257543  0.67585399  0.77391347     0.00900
C94         C  0.18854635  0.67248813  0.75372046     0.06900
C95         C  0.19064428  0.69813851  0.73490189    -0.06200
H96         H  0.21844961  0.66050600  0.79238299     0.07600
H97         H  0.17535014  0.70433088  0.71669391     0.08800
Cu98       Cu  0.26554398  0.72125704  0.78876395     0.44200
Cu99       Cu  0.22881761  0.75756202  0.72595719     0.42000
Cu100      Cu  0.29574178  0.79426367  0.75733023     0.43900
N101        N  0.30295161  0.74523600  0.80593207    -0.34900
N102        N  0.31361405  0.77165704  0.79479528    -0.29100
C103        C  0.33760943  0.78095629  0.81146243    -0.05200
C104        C  0.34244605  0.75933968  0.83418715     0.07000
C105        C  0.32000500  0.73700332  0.82987424     0.00800
H106        H  0.35067071  0.80182815  0.80708502     0.08500
H107        H  0.31594893  0.71645052  0.84340446     0.07500
N108        N  0.27319658  0.81076355  0.71934077    -0.36300
N109        N  0.24828108  0.79749818  0.70852901    -0.28500
C110        C  0.23902534  0.81302614  0.68390790    -0.03700
C111        C  0.25914497  0.83727202  0.67865630     0.04900
C112        C  0.28060870  0.83508623  0.70163959     0.03000
H113        H  0.21943882  0.80650564  0.67043642     0.08100
H114        H  0.30008175  0.85007430  0.70537069     0.06900
O115        O  0.03950927  0.47732935  0.70629365    -0.73100
O116        O  0.97338192  0.54123354  0.70635944    -0.74100
O117        O  0.03833365  0.54328843  0.70531422    -0.62700
O118        O  0.97505516  0.47494995  0.70808498    -0.71100
O119        O  0.97585597  0.47653758  0.75816454    -0.70700
O120        O  0.03940911  0.54413709  0.75539670    -0.61900
O121        O  0.97371138  0.54278835  0.75643025    -0.74500
O122        O  0.04092458  0.47797042  0.75636390    -0.73200
Cu123      Cu  0.00649729  0.50923895  0.70483371     1.04600
Cu124      Cu  0.00750972  0.51049768  0.75835850     1.04300
C125        C  0.05071275  0.46738345  0.73109737     0.93100
C126        C  0.96266794  0.55189020  0.73112967     0.92200
C127        C  0.04944515  0.55395754  0.73003675     0.84400
C128        C  0.96553553  0.46485192  0.73358468     0.90600
N129        N  0.77293996  0.21411251  0.71327170    -0.27500
N130        N  0.74519244  0.20459491  0.72018433    -0.35300
C131        C  0.73812675  0.17974034  0.70283182     0.00900
C132        C  0.76267646  0.17312723  0.68411726     0.06900
C133        C  0.78427192  0.19554774  0.69151560    -0.06200
H134        H  0.71666114  0.16742647  0.70391257     0.07600
H135        H  0.80643626  0.19870392  0.68143489     0.08800
Cu136      Cu  0.71834490  0.22607662  0.75301937     0.44200
Cu137      Cu  0.79416044  0.25270014  0.73260492     0.42000
Cu138      Cu  0.75184523  0.29569057  0.78785309     0.43900
N139        N  0.69745082  0.25207382  0.78707246    -0.34900
N140        N  0.70937563  0.27761215  0.79908758    -0.29100
C141        C  0.69055218  0.28847270  0.82059760    -0.05200
C142        C  0.66565244  0.26871287  0.82261012     0.07000
C143        C  0.67086557  0.24586903  0.80095379     0.00800
H144        H  0.69533499  0.30860530  0.83461092     0.08500
H145        H  0.65658759  0.22599086  0.79584004     0.07500
N146        N  0.79487893  0.30914692  0.77323380    -0.36300
N147        N  0.81025046  0.29346705  0.75258639    -0.28500
C148        C  0.83619110  0.30889783  0.74639886    -0.03700
C149        C  0.83738508  0.33558965  0.76412554     0.04900
C150        C  0.81080059  0.33483555  0.78099577     0.03000
H151        H  0.85276857  0.30137482  0.72989643     0.08100
H152        H  0.80301467  0.35224914  0.79682970     0.06900
O153        O  0.47677719  0.71323149  0.97713327    -0.73100
O154        O  0.54057530  0.71960894  0.04349475    -0.74100
O155        O  0.47567825  0.71582709  0.04092640    -0.62700
O156        O  0.54161326  0.71605645  0.97886194    -0.71100
O157        O  0.53918553  0.76748022  0.97542197    -0.70700
O158        O  0.47341656  0.76740850  0.03956306    -0.61900
O159        O  0.53816698  0.77100362  0.04007848    -0.74500
O160        O  0.47460826  0.76477274  0.97541621    -0.73200
Cu161      Cu  0.50880580  0.71440230  0.01019699     1.04600
Cu162      Cu  0.50632796  0.76944379  0.00757914     1.04300
C163        C  0.46547016  0.73818486  0.96603534     0.93100
C164        C  0.54936574  0.74665231  0.05230998     0.92200
C165        C  0.46379026  0.74133465  0.04983283     0.84400
C166        C  0.55066882  0.74150862  0.96693634     0.90600
O167        O  0.46295418  0.27250928  0.96636513    -0.73100
O168        O  0.53233987  0.27320840  0.02367809    -0.74100
O169        O  0.52723872  0.27302839  0.95975943    -0.62700
O170        O  0.46784508  0.27153498  0.03012964    -0.71100
O171        O  0.46885810  0.21994741  0.02885988    -0.70700
O172        O  0.52775258  0.22141931  0.95990375    -0.61900
O173        O  0.53335075  0.22156296  0.02434487    -0.74500
O174        O  0.46328165  0.22086314  0.96472627    -0.73200
Cu175      Cu  0.49759225  0.27432011  0.99498235     1.04600
Cu176      Cu  0.49835250  0.21912306  0.99441490     1.04300
C177        C  0.45194422  0.24693051  0.95647033     0.93100
C178        C  0.54383169  0.24787944  0.03335565     0.92200
C179        C  0.53685144  0.24722993  0.94875951     0.84400
C180        C  0.45895377  0.24521256  0.04052911     0.90600
N181        N  0.70689977  0.74103199  0.80077166    -0.27500
N182        N  0.69121536  0.76178573  0.78527450    -0.35300
C183        C  0.66784374  0.77193321  0.80219828     0.00900
C184        C  0.66858035  0.75668566  0.82976338     0.06900
C185        C  0.69371904  0.73721414  0.82798417    -0.06200
H186        H  0.65118709  0.78871520  0.79466927     0.07600
H187        H  0.70188188  0.72142992  0.84518204     0.08800
Cu188      Cu  0.70258614  0.77529951  0.74182800     0.44200
Cu189      Cu  0.74523337  0.71894309  0.78323970     0.42000
Cu190      Cu  0.77239252  0.74527191  0.70907259     0.43900
N191        N  0.72037338  0.79066625  0.70119675    -0.34900
N192        N  0.74646733  0.78110857  0.68963984    -0.29100
C193        C  0.75254139  0.79829223  0.66485020    -0.05200
C194        C  0.72895255  0.81939768  0.66050974     0.07000
C195        C  0.70901515  0.81365479  0.68401033     0.00800
H196        H  0.77274050  0.79577732  0.65115542     0.08500
H197        H  0.68838881  0.82626964  0.68915103     0.07500
N198        N  0.79171147  0.70835287  0.73353404    -0.36300
N199        N  0.78181227  0.69909967  0.76027823    -0.28500
C200        C  0.79895126  0.67509922  0.76981341    -0.03700
C201        C  0.82089836  0.66861566  0.74815635     0.04900
C202        C  0.81543377  0.69031052  0.72544334     0.03000
H203        H  0.79549864  0.66328950  0.79109488     0.08100
H204        H  0.82797989  0.69315817  0.70463466     0.06900
N205        N  0.74703867  0.22245598  0.30671626    -0.27500
N206        N  0.72023301  0.21285559  0.29672055    -0.35300
C207        C  0.70880421  0.19171327  0.31597888     0.00900
C208        C  0.72941362  0.18739311  0.33932473     0.06900
C209        C  0.75340776  0.20740464  0.33265722    -0.06200
H210        H  0.68765092  0.17929059  0.31233324     0.07600
H211        H  0.77429205  0.21038165  0.34533885     0.08800
Cu212      Cu  0.70156622  0.22580639  0.25568022     0.44200
Cu213      Cu  0.77435017  0.25410537  0.28315684     0.42000
Cu214      Cu  0.74575000  0.27674444  0.20862229     0.43900
N215        N  0.68866151  0.23796960  0.21230833    -0.34900
N216        N  0.70454610  0.25701866  0.19499655    -0.29100
C217        C  0.69016275  0.25995249  0.16824609    -0.05200
C218        C  0.66414410  0.24154546  0.16866876     0.07000
C219        C  0.66401585  0.22796890  0.19701498     0.00800
H220        H  0.69842103  0.27390804  0.14965315     0.08500
H221        H  0.64719065  0.21211760  0.20600480     0.07500
N222        N  0.78639250  0.29306761  0.22726473    -0.36300
N223        N  0.79672350  0.28509573  0.25425363    -0.28500
C224        C  0.82279563  0.30072947  0.25969507    -0.03700
C225        C  0.82933208  0.31956623  0.23498704     0.04900
C226        C  0.80564357  0.31385534  0.21488669     0.03000
H227        H  0.83576654  0.29869875  0.28040000     0.08100
H228        H  0.80201650  0.32469580  0.19313129     0.06900
N229        N  0.28630860  0.25416271  0.80147025    -0.27500
N230        N  0.29914732  0.23156086  0.78575172    -0.35300
C231        C  0.32232063  0.21961036  0.80170357     0.00900
C232        C  0.32435593  0.23551004  0.82886712     0.06900
C233        C  0.30111269  0.25730143  0.82792751    -0.06200
H234        H  0.33698555  0.20118810  0.79367696     0.07600
H235        H  0.29536912  0.27430503  0.84506361     0.08800
Cu236      Cu  0.28486733  0.21763308  0.74348878     0.44200
Cu237      Cu  0.24977473  0.27995981  0.78568329     0.42000
Cu238      Cu  0.21842449  0.25459726  0.71307312     0.43900
N239        N  0.26425322  0.20355630  0.70389806    -0.34900
N240        N  0.23926234  0.21627653  0.69291989    -0.29100
C241        C  0.23090145  0.20055527  0.66782279    -0.05200
C242        C  0.25186661  0.17696120  0.66270230     0.07000
C243        C  0.27263248  0.17968816  0.68614461     0.00800
H244        H  0.21114372  0.20605352  0.65428352     0.08500
H245        H  0.29203397  0.16492505  0.69057312     0.07500
N246        N  0.20306091  0.29322604  0.73722471    -0.36300
N247        N  0.21428162  0.30221283  0.76361839    -0.28500
C248        C  0.19921314  0.32763928  0.77312293    -0.03700
C249        C  0.17741019  0.33523875  0.75168362     0.04900
C250        C  0.18063583  0.31283467  0.72922150     0.06000
H251        H  0.20406353  0.33978207  0.79404392     0.08100
H252        H  0.16738943  0.31056134  0.70867643     0.06900
N253        N  0.28894902  0.74459704  0.19514037    -0.27500
N254        N  0.29972843  0.76893045  0.21006363    -0.35300
C255        C  0.32568932  0.77848662  0.19701463     0.00900
C256        C  0.33176486  0.75911173  0.17265521     0.06900
C257        C  0.30786509  0.73788177  0.17220605    -0.06200
H258        H  0.33939353  0.79770286  0.20520332     0.07600
H259        H  0.30431848  0.71892666  0.15641132     0.08800
Cu260      Cu  0.27972580  0.78672139  0.24857722     0.44200
Cu261      Cu  0.24957291  0.72128878  0.20761803     0.42000
Cu262      Cu  0.21572666  0.74589734  0.27971957     0.43900
N263        N  0.25897463  0.79922757  0.28861497    -0.34900
N264        N  0.23548318  0.78443021  0.30043589    -0.29100
C265        C  0.22745440  0.79884928  0.32630227    -0.05200
C266        C  0.24703869  0.82384897  0.33097924     0.07000
C267        C  0.26666943  0.82323608  0.30655059     0.00800
H268        H  0.20880032  0.79159343  0.34059601     0.08500
H269        H  0.28493095  0.83939096  0.30169502     0.07500
N270        N  0.19946394  0.70968628  0.25291162    -0.36300
N271        N  0.21129549  0.70108724  0.22673208    -0.28500
C272        C  0.19508624  0.67704745  0.21554579    -0.03700
C273        C  0.17194725  0.66998056  0.23567354     0.04900
C274        C  0.17551568  0.69130024  0.25905084     0.03000
H275        H  0.20029633  0.66524288  0.19452090     0.08100
H276        H  0.16171367  0.69354076  0.27919294     0.06900
C277        C  0.42587910  0.24818656  0.93547168    -0.05400
C278        C  0.40880438  0.27575575  0.93343942    -0.05400
C279        C  0.38476553  0.27813623  0.91306242    -0.23500
C280        C  0.37756689  0.25310881  0.89402355     0.18700
C281        C  0.39443358  0.22516483  0.89586745     0.15900
C282        C  0.41832573  0.22271915  0.91686369    -0.18600
C283        C  0.38746260  0.20044304  0.87624942    -0.20400
C284        C  0.36438287  0.20363512  0.85469989    -0.12900
C285        C  0.34767041  0.23144596  0.85264152     0.03700
C286        C  0.35417139  0.25593493  0.87272137    -0.25100
H287        H  0.41405083  0.29565377  0.94767178     0.08800
H288        H  0.37209255  0.29969800  0.91191436     0.12400
H289        H  0.43146880  0.20145698  0.91813574     0.12300
H290        H  0.40009262  0.17885833  0.87728713     0.12100
H291        H  0.35964334  0.18427119  0.83965659     0.12600
H292        H  0.34178135  0.27762377  0.87118373     0.14600
C293        C  0.56911524  0.24977994  0.05538384    -0.05400
C294        C  0.58631761  0.27738044  0.05746869    -0.05400
C295        C  0.60888378  0.28082367  0.07943510    -0.23500
C296        C  0.61447412  0.25684281  0.10005854     0.18700
C297        C  0.59745892  0.22886900  0.09818024     0.15900
C298        C  0.57511939  0.22531099  0.07556933    -0.18600
C299        C  0.60268688  0.20523268  0.11935782    -0.20400
C300        C  0.62432174  0.20942229  0.14227823    -0.12900
C301        C  0.64144862  0.23708609  0.14419451     0.03700
C302        C  0.63651777  0.26064365  0.12279747    -0.25100
H303        H  0.58218988  0.29654524  0.04212236     0.08800
H304        H  0.62163401  0.30239667  0.08055898     0.12400
H305        H  0.56179166  0.20409566  0.07436287     0.12300
H306        H  0.58989660  0.18368619  0.11837266     0.12100
H307        H  0.62786476  0.19079683  0.15836469     0.12600
H308        H  0.64927113  0.28218589  0.12424685     0.14600
C309        C  0.57453992  0.74042941  0.94320655    -0.05400
C310        C  0.59172362  0.71313079  0.93919754    -0.05400
C311        C  0.61412142  0.71135004  0.91692440    -0.23500
C312        C  0.61957134  0.73668277  0.89779426     0.18700
C313        C  0.60226510  0.76417886  0.90122031     0.15900
C314        C  0.58004682  0.76602190  0.92409281    -0.18600
C315        C  0.60728538  0.78917112  0.88145819    -0.20400
C316        C  0.62895470  0.78678306  0.85840260    -0.12900
C317        C  0.64636956  0.75956659  0.85489860     0.03700
C318        C  0.64172348  0.73470818  0.87499749    -0.25100
H319        H  0.58799862  0.69304691  0.95349611     0.08800
H320        H  0.62702670  0.69003826  0.91452585     0.12400
H321        H  0.56677029  0.78707724  0.92666015     0.12300
H322        H  0.59426508  0.81042570  0.88363140     0.12100
H323        H  0.63218719  0.80638364  0.84338533     0.12600
H324        H  0.65466943  0.71345747  0.87238399     0.14600
C325        C  0.43839832  0.74016176  0.07170300    -0.05400
C326        C  0.42097387  0.71277267  0.07428088    -0.05400
C327        C  0.39678426  0.71106481  0.09457462    -0.23500
C328        C  0.38971325  0.73664589  0.11294667     0.18700
C329        C  0.40721906  0.76423534  0.11084398     0.15900
C330        C  0.43129298  0.76596140  0.09000733    -0.18600
C331        C  0.40032113  0.78959260  0.12963928    -0.20400
C332        C  0.37606639  0.78776471  0.14997425    -0.12900
C333        C  0.35811885  0.76064359  0.15180125     0.03700
C334        C  0.36533546  0.73503850  0.13329732    -0.25100
H335        H  0.42584280  0.69264929  0.06027425     0.08800
H336        H  0.38362858  0.68975872  0.09588245     0.12400
H337        H  0.44465987  0.78710705  0.08831247     0.12300
H338        H  0.41353385  0.81085523  0.12849490     0.12100
H339        H  0.37108306  0.80792488  0.16386498     0.12600
H340        H  0.35216455  0.71378578  0.13472285     0.14600
C341        C  0.64043459  0.27039474  0.84486923    -0.05400
C342        C  0.63241634  0.29901642  0.85817376    -0.05400
C343        C  0.60967547  0.30050169  0.88023776    -0.23500
C344        C  0.59479401  0.27332093  0.88979624     0.18700
C345        C  0.60252714  0.24446550  0.87640033     0.15900
C346        C  0.62499033  0.24323889  0.85385541    -0.18600
C347        C  0.58810757  0.21719323  0.88622404    -0.20400
C348        C  0.56662178  0.21833216  0.90942205    -0.12900
C349        C  0.55883001  0.24681596  0.92321410     0.03700
C350        C  0.57280643  0.27436824  0.91290907    -0.25100
H351        H  0.64372818  0.32032409  0.85150322     0.08800
H352        H  0.60405840  0.32288860  0.89016436     0.12400
H353        H  0.63112388  0.22093267  0.84405455     0.12300
H354        H  0.59375201  0.19483475  0.87623215     0.12100
H355        H  0.55621673  0.19674978  0.91670161     0.12600
H356        H  0.56712100  0.29651416  0.92331165     0.14600
C357        C  0.15521091  0.36128934  0.75279848    -0.05400
C358        C  0.14867079  0.37635917  0.78030310    -0.05400
C359        C  0.12730040  0.40042091  0.78161209    -0.23500
C360        C  0.11209399  0.41002192  0.75535892     0.18700
C361        C  0.11884056  0.39542434  0.72750014     0.15900
C362        C  0.14020465  0.37114973  0.72638451    -0.18600
C363        C  0.10398644  0.40521038  0.70115488    -0.20400
C364        C  0.08228546  0.42887537  0.70246860    -0.12900
C365        C  0.07479620  0.44318527  0.73013065     0.03700
C366        C  0.09008168  0.43376597  0.75656022    -0.25100
H367        H  0.15968884  0.36924509  0.80108998     0.08800
H368        H  0.12253578  0.41131810  0.80311107     0.12400
H369        H  0.14517944  0.36018215  0.70498018     0.12300
H370        H  0.10895765  0.39444382  0.67962463     0.12100
H371        H  0.07100472  0.43565710  0.68170223     0.12600
H372        H  0.08478032  0.44467550  0.77793985     0.14600
C373        C  0.84545311  0.64457898  0.74959026    -0.05400
C374        C  0.85109546  0.62803240  0.77650455    -0.05400
C375        C  0.87501129  0.60660612  0.77838382    -0.23500
C376        C  0.89387390  0.60108861  0.75343404     0.18700
C377        C  0.88798222  0.61688377  0.72605290     0.15900
C378        C  0.86393086  0.63839214  0.72431421    -0.18600
C379        C  0.90643651  0.61110138  0.70089221    -0.20400
C380        C  0.93062387  0.59014536  0.70280154    -0.12900
C381        C  0.93714751  0.57458497  0.73000662     0.03700
C382        C  0.91852918  0.58019731  0.75531922    -0.25100
H383        H  0.83744929  0.63195903  0.79639460     0.08800
H384        H  0.87895091  0.59453757  0.79960141     0.12400
H385        H  0.85981958  0.65043584  0.70315363     0.12300
H386        H  0.90220639  0.62290293  0.67960418     0.12100
H387        H  0.94440773  0.58626956  0.68292710     0.12600
H388        H  0.92300403  0.56805077  0.77639398     0.14600
C389        C  0.94262387  0.43936486  0.73466920    -0.05400
C390        C  0.93700486  0.42087599  0.70897140    -0.05400
C391        C  0.91587198  0.39646873  0.70986886    -0.23500
C392        C  0.89956265  0.39033195  0.73642739     0.18700
C393        C  0.90463282  0.40899018  0.76232969     0.15900
C394        C  0.92634341  0.43315903  0.76141776    -0.18600
C395        C  0.88769828  0.40331263  0.78862425    -0.20400
C396        C  0.86584353  0.37951017  0.78914552    -0.12900
C397        C  0.86085992  0.36056960  0.76362451     0.03700
C398        C  0.87803387  0.36603601  0.73733187    -0.25100
H399        H  0.94926469  0.42504959  0.68811264     0.08800
H400        H  0.91220346  0.38254101  0.68982573     0.12400
H401        H  0.93024737  0.44730901  0.78131930     0.12300
H402        H  0.89117916  0.41737682  0.80864502     0.12100
H403        H  0.85302444  0.37571433  0.80971710     0.12600
H404        H  0.87417147  0.35198780  0.71741430     0.14600
C405        C  0.36606150  0.76029933  0.85818151    -0.05400
C406        C  0.38044292  0.78857520  0.86570856    -0.05400
C407        C  0.40244471  0.78983340  0.88850313    -0.23500
C408        C  0.41068054  0.76274819  0.90408840     0.18700
C409        C  0.39656347  0.73412072  0.89668288     0.15900
C410        C  0.37426716  0.73307063  0.87386443    -0.18600
C411        C  0.40507935  0.70700694  0.91216850    -0.20400
C412        C  0.42751001  0.70825908  0.93466459    -0.12900
C413        C  0.44169148  0.73663427  0.94221319     0.03700
C414        C  0.43294234  0.76387144  0.92685318    -0.25100
H415        H  0.37442142  0.80996872  0.85427947     0.08800
H416        H  0.41300517  0.81194122  0.89391097     0.12400
H417        H  0.36367381  0.71107620  0.86815685     0.12300
H418        H  0.39450377  0.68489143  0.90683623     0.12100
H419        H  0.43367248  0.68697327  0.94625502     0.12600
H420        H  0.44363586  0.78589897  0.93234721     0.14600
C421        C  0.16432626  0.64833643  0.75372104    -0.05400
C422        C  0.15728187  0.63221687  0.78041836    -0.05400
C423        C  0.13329599  0.61078475  0.78110088    -0.23500
C424        C  0.11604556  0.60479350  0.75501274     0.18700
C425        C  0.12337129  0.62024375  0.72781465     0.15900
C426        C  0.14734630  0.64200223  0.72737032    -0.18600
C427        C  0.10647042  0.61374985  0.70159258    -0.20400
C428        C  0.08241858  0.59232367  0.70233667    -0.12900
C429        C  0.07456746  0.57719116  0.72938718     0.03700
C430        C  0.09161757  0.58360600  0.75568258    -0.25100
H431        H  0.16979511  0.63673707  0.80106766     0.08800
H432        H  0.12809068  0.59904805  0.80214274     0.12400
H433        H  0.15277463  0.65395003  0.70649037     0.12300
H434        H  0.11185818  0.62524099  0.68046621     0.12100
H435        H  0.06984535  0.58770722  0.68172778     0.12600
H436        H  0.08614031  0.57182197  0.77664049     0.14600
C437        C  0.74792639  0.08222578  0.44466114    -0.05400
C438        C  0.77615061  0.09560380  0.43698333    -0.05400
C439        C  0.77798988  0.11951385  0.41568740    -0.23500
C440        C  0.75166766  0.13048107  0.40138585     0.18700
C441        C  0.72312575  0.11742792  0.40894503     0.15900
C442        C  0.72139138  0.09354662  0.43064291    -0.18600
C443        C  0.69687133  0.12818029  0.39431118    -0.20400
C444        C  0.69892753  0.15120133  0.37207706    -0.12900
C445        C  0.72724191  0.16418072  0.36414490     0.03700
C446        C  0.75352191  0.15388391  0.37927939    -0.25100
H447        H  0.79698527  0.08746773  0.44735906     0.08800
H448        H  0.80007802  0.12919466  0.41017292     0.12400
H449        H  0.69948422  0.08343689  0.43617809     0.12300
H450        H  0.67476157  0.11854083  0.39981038     0.12100
H451        H  0.67823758  0.15882166  0.36109530     0.12600
H452        H  0.77555813  0.16335802  0.37330998     0.14600
C453        C  0.72638396  0.84448435  0.63751592    -0.05400
C454        C  0.69771140  0.85617596  0.62906523    -0.05400
C455        C  0.69523246  0.88068274  0.60833386    -0.23500
C456        C  0.72140708  0.89431880  0.59589556     0.18700
C457        C  0.75029226  0.88270360  0.60430731     0.15900
C458        C  0.75257765  0.85778819  0.62474895    -0.18600
C459        C  0.77653999  0.89640292  0.59239247    -0.20400
C460        C  0.77437391  0.92131163  0.57234065    -0.12900
C461        C  0.74588970  0.93321691  0.56353182     0.03700
C462        C  0.71933700  0.91944999  0.57544728    -0.25100
H463        H  0.67712760  0.84626348  0.63840465     0.08800
H464        H  0.67282241  0.88914024  0.60223367     0.12400
H465        H  0.77485548  0.84931440  0.63132090     0.12300
H466        H  0.79888797  0.88790446  0.59867570     0.12100
H467        H  0.79524967  0.93129235  0.56371883     0.12600
H468        H  0.69718023  0.92835601  0.56901825     0.14600
C469        C  0.74445457  0.06818284  0.57778559    -0.05400
C470        C  0.71639087  0.07493684  0.59154035    -0.05400
C471        C  0.71462948  0.09578414  0.61573485    -0.23500
C472        C  0.74088361  0.11058643  0.62664820     0.18700
C473        C  0.76935839  0.10371211  0.61346098     0.15900
C474        C  0.77104258  0.08238652  0.58922888    -0.18600
C475        C  0.79553118  0.11876397  0.62440234    -0.20400
C476        C  0.79337877  0.14093140  0.64758594    -0.12900
C477        C  0.76505886  0.14840865  0.66050826     0.03700
C478        C  0.73893520  0.13263129  0.65011933    -0.25100
H479        H  0.69555457  0.06420730  0.58346504     0.08800
H480        H  0.69263368  0.10066046  0.62562307     0.12400
H481        H  0.79283398  0.07739400  0.57895903     0.12300
H482        H  0.81759771  0.11373088  0.61476632     0.12100
H483        H  0.81402768  0.15224643  0.65529314     0.12600
H484        H  0.71690765  0.13803821  0.65961235     0.14600
C485        C  0.24700298  0.84699067  0.35590525    -0.05400
C486        C  0.27344215  0.86443864  0.36201035    -0.05400
C487        C  0.27360319  0.88733307  0.38439934    -0.23500
C488        C  0.24726584  0.89341853  0.40106704     0.18700
C489        C  0.22052706  0.87594467  0.39545816     0.15900
C490        C  0.22062338  0.85260138  0.37306056    -0.18600
C491        C  0.19410238  0.88255749  0.41201661    -0.20400
C492        C  0.19413543  0.90651044  0.43359483    -0.12900
C493        C  0.22069033  0.92398050  0.43921350     0.03700
C494        C  0.24723522  0.91702890  0.42297356    -0.25100
H495        H  0.29420217  0.86038603  0.34952909     0.08800
H496        H  0.29430057  0.90049146  0.38848302     0.12400
H497        H  0.20001154  0.83950411  0.36847133     0.12300
H498        H  0.17335804  0.86945181  0.40806337     0.12100
H499        H  0.17340151  0.91135036  0.44589557     0.12600
H500        H  0.26781958  0.93043968  0.42691723     0.14600
C501        C  0.22410346  0.07150639  0.55933767    -0.05400
C502        C  0.19731343  0.08807047  0.56580102    -0.05400
C503        C  0.19765337  0.11296588  0.58626923    -0.23500
C504        C  0.22470473  0.12155148  0.60097353     0.18700
C505        C  0.25183669  0.10530282  0.59439441     0.15900
C506        C  0.25142511  0.08065418  0.57344989    -0.18600
C507        C  0.27880628  0.11355588  0.60935574    -0.20400
C508        C  0.27879156  0.13710349  0.63120198    -0.12900
C509        C  0.25187025  0.15315910  0.63831256     0.03700
C510        C  0.22495884  0.14557320  0.62264383    -0.25100
H511        H  0.17601600  0.08173369  0.55506187     0.08800
H512        H  0.17661380  0.12520490  0.59095002     0.12400
H513        H  0.27229856  0.06812099  0.56868922     0.12300
H514        H  0.29988661  0.10143740  0.60450594     0.12100
H515        H  0.29994806  0.14270485  0.64251589     0.12600
H516        H  0.20395891  0.15760434  0.62797769     0.14600
C517        C  0.25776311  0.86025615  0.65375023    -0.05400
C518        C  0.28378316  0.87717223  0.64526556    -0.05400
C519        C  0.28231657  0.89912028  0.62203394    -0.23500
C520        C  0.25471721  0.90477265  0.60707594     0.18700
C521        C  0.22845700  0.88779514  0.61527239     0.15900
C522        C  0.23019480  0.86553694  0.63836208    -0.18600
C523        C  0.20078914  0.89365386  0.60049753    -0.20400
C524        C  0.19906737  0.91639408  0.57799103    -0.12900
C525        C  0.22504657  0.93344675  0.56965362     0.03700
C526        C  0.25288860  0.92730446  0.58424870    -0.25100
H527        H  0.30537738  0.87333399  0.65644097     0.08800
H528        H  0.30270697  0.91185147  0.61593855     0.12400
H529        H  0.20985610  0.85291738  0.64475273     0.12300
H530        H  0.18044630  0.88077205  0.60645541     0.12100
H531        H  0.17745621  0.92041685  0.56689774     0.12600
H532        H  0.27313979  0.94024163  0.57804766     0.14600
C533        C  0.57257717  0.75038466  0.07672553    -0.05400
C534        C  0.58242733  0.78046783  0.08506291    -0.05400
C535        C  0.60429221  0.78483172  0.10767051    -0.23500
C536        C  0.61699326  0.75921511  0.12254388     0.18700
C537        C  0.60736362  0.72879523  0.11458939     0.15900
C538        C  0.58512896  0.72453569  0.09183465    -0.18600
C539        C  0.62043823  0.70319980  0.12933480    -0.20400
C540        C  0.64315416  0.70768325  0.15121567    -0.12900
C541        C  0.65296214  0.73784144  0.15922016     0.03700
C542        C  0.63942874  0.76356205  0.14496845    -0.25100
H543        H  0.57328365  0.80086816  0.07398544     0.08800
H544        H  0.61140517  0.80830970  0.11338556     0.12400
H545        H  0.57782123  0.70120543  0.08579092     0.12300
H546        H  0.61335115  0.67969552  0.12372006     0.12100
H547        H  0.65294343  0.68746161  0.16205393     0.12600
H548        H  0.64690967  0.78691227  0.15073760     0.14600
C549        C  0.76307730  0.86211876  0.35437081    -0.05400
C550        C  0.79024932  0.86651281  0.37076969    -0.05400
C551        C  0.79230146  0.88909086  0.39347232    -0.23500
C552        C  0.76716073  0.90767517  0.40046994     0.18700
C553        C  0.73976600  0.90373928  0.38403585     0.15900
C554        C  0.73795576  0.88117218  0.36095150    -0.18600
C555        C  0.71450677  0.92209686  0.39134845    -0.20400
C556        C  0.71617651  0.94365902  0.41504913    -0.12900
C557        C  0.74323178  0.94756382  0.43173019     0.03700
C558        C  0.76882255  0.92973462  0.42396439    -0.25100
H559        H  0.81013923  0.85257436  0.36602050     0.08800
H560        H  0.81351957  0.89179985  0.40576579     0.12400
H561        H  0.71678525  0.87795271  0.34870654     0.12300
H562        H  0.69331026  0.91949334  0.37900605     0.12100
H563        H  0.69617198  0.95723597  0.42040825     0.12600
H564        H  0.78978976  0.93241248  0.43670390     0.14600
C565        C  0.06642878  0.56403349  0.25263078    -0.05400
C566        C  0.07146797  0.57984978  0.28010184    -0.05400
C567        C  0.09293663  0.60375213  0.28206668    -0.23500
C568        C  0.10994656  0.61223211  0.25666327     0.18700
C569        C  0.10525225  0.59647805  0.22893268     0.15900
C570        C  0.08341530  0.57256384  0.22703912    -0.18600
C571        C  0.12256145  0.60490378  0.20365574    -0.20400
C572        C  0.14421219  0.62875506  0.20580405    -0.12900
C573        C  0.14894618  0.64469377  0.23327199     0.03700
C574        C  0.13162435  0.63615073  0.25861958    -0.25100
H575        H  0.05868213  0.57383581  0.30013811     0.08800
H576        H  0.09626964  0.61559822  0.30354849     0.12400
H577        H  0.07988859  0.56040437  0.20575693     0.12300
H578        H  0.11933027  0.59306307  0.18217573     0.12100
H579        H  0.15702678  0.63482957  0.18581411     0.12600
H580        H  0.13513748  0.64781766  0.28014293     0.14600
C581        C  0.94020623  0.42101568  0.24982082    -0.05400
C582        C  0.93438872  0.40610175  0.27750091    -0.05400
C583        C  0.91240749  0.38274217  0.27968383    -0.23500
C584        C  0.89547145  0.37379766  0.25426921     0.18700
C585        C  0.90115069  0.38820451  0.22614039     0.15900
C586        C  0.92367319  0.41162135  0.22398525    -0.18600
C587        C  0.88382375  0.37920873  0.20088161    -0.20400
C588        C  0.86084967  0.35665454  0.20363230    -0.12900
C589        C  0.85475357  0.34245160  0.23166081     0.03700
C590        C  0.87259447  0.35102830  0.25679911    -0.25100
H591        H  0.94681862  0.41259079  0.29774054     0.08800
H592        H  0.90840961  0.37191573  0.30141233     0.12400
H593        H  0.92781760  0.42291384  0.20250191     0.12300
H594        H  0.88780015  0.38984429  0.17906288     0.12100
H595        H  0.84783186  0.35045417  0.18371004     0.12600
H596        H  0.86829902  0.34063305  0.27863960     0.14600
C597        C  0.93520663  0.55877863  0.24741309    -0.05400
C598        C  0.92161006  0.56672321  0.21968487    -0.05400
C599        C  0.89916847  0.58962346  0.21826373    -0.23500
C600        C  0.88998369  0.60526135  0.24452603     0.18700
C601        C  0.90378239  0.59796742  0.27249746     0.15900
C602        C  0.92616728  0.57463572  0.27382187    -0.18600
C603        C  0.89496179  0.61420851  0.29861399    -0.20400
C604        C  0.87251002  0.63722672  0.29703179    -0.12900
C605        C  0.85822074  0.64417238  0.26939305     0.03700
C606        C  0.86722377  0.62808353  0.24319590    -0.25100
H607        H  0.92820908  0.55507089  0.19895572     0.08800
H608        H  0.88898890  0.59508263  0.19661638     0.12400
H609        H  0.93667273  0.56905516  0.29528564     0.12300
H610        H  0.90536463  0.60908704  0.32023497     0.12100
H611        H  0.86598762  0.64923682  0.31756553     0.12600
H612        H  0.85682702  0.63356332  0.22165115     0.14600
C613        C  0.43724706  0.24342377  0.06627839    -0.05400
C614        C  0.43208393  0.21462265  0.08054483    -0.05400
C615        C  0.41190835  0.21212759  0.10476365    -0.23500
C616        C  0.39616921  0.23832375  0.11524022     0.18700
C617        C  0.40083829  0.26741710  0.10107877     0.15900
C618        C  0.42146140  0.26985914  0.07677555    -0.18600
C619        C  0.38470604  0.29346575  0.11148690    -0.20400
C620        C  0.36424942  0.29071950  0.13560911    -0.12900
C621        C  0.35950819  0.26187838  0.15001419     0.03700
C622        C  0.37575141  0.23577489  0.13956429    -0.25100
H623        H  0.44384669  0.19385991  0.07309841     0.08800
H624        H  0.40858673  0.18959743  0.11529247     0.12400
H625        H  0.42501427  0.29220096  0.06594170     0.12300
H626        H  0.38788333  0.31601312  0.10095737     0.12100
H627        H  0.35234669  0.31135307  0.14306871     0.12600
H628        H  0.37230524  0.21326123  0.15002893     0.14600
C629        C  0.25420364  0.13078415  0.34283970    -0.05400
C630        C  0.27966519  0.11230235  0.34951831    -0.05400
C631        C  0.27812052  0.08947548  0.37200815    -0.23500
C632        C  0.25104859  0.08462331  0.38812831     0.18700
C633        C  0.22501243  0.10228026  0.38088528     0.15900
C634        C  0.22674859  0.12512690  0.35831641    -0.18600
C635        C  0.19782072  0.09718908  0.39673196    -0.20400
C636        C  0.19660479  0.07530833  0.42007374    -0.12900
C637        C  0.22261095  0.05825417  0.42809859     0.03700
C638        C  0.24969749  0.06280691  0.41167935    -0.25100
H639        H  0.30105624  0.11610417  0.33802858     0.08800
H640        H  0.29828193  0.07598336  0.37716291     0.12400
H641        H  0.20667966  0.13870423  0.35306562     0.12300
H642        H  0.17757297  0.11045642  0.39134749     0.12100
H643        H  0.17548986  0.07221544  0.43226673     0.12600
H644        H  0.26987954  0.04956271  0.41738748     0.14600
C645        C  0.07523548  0.43092577  0.24999688    -0.05400
C646        C  0.09290126  0.42830100  0.22365236    -0.05400
C647        C  0.11829993  0.40892847  0.22282262    -0.23500
C648        C  0.12640864  0.39141273  0.24821099     0.18700
C649        C  0.10884725  0.39361612  0.27486572     0.15900
C650        C  0.08350779  0.41361682  0.27571960    -0.18600
C651        C  0.11681350  0.37550568  0.30000750    -0.20400
C652        C  0.14161820  0.35514181  0.29855405    -0.12900
C653        C  0.15917775  0.35280739  0.27208291     0.03700
C654        C  0.15153839  0.37137338  0.24711737    -0.25100
H655        H  0.08726350  0.44155392  0.20361876     0.08800
H656        H  0.13150404  0.40750153  0.20220269     0.12400
H657        H  0.07006352  0.41537354  0.29615511     0.12300
H658        H  0.10367910  0.37682779  0.32066996     0.12100
H659        H  0.14708847  0.34128260  0.31820848     0.12600
H660        H  0.16455851  0.36959792  0.22640618     0.14600
loop_ 
_geom_bond_atom_site_label_1 
_geom_bond_atom_site_label_2 
_geom_bond_distance 
_geom_bond_site_symmetry_2 
_ccdc_geom_bond_type 
N1            N2   1.320       .  A
N1            C5   1.346       .  A
N1           Cu9   2.084       .  S
N2            C3   1.345       .  A
N2           Cu8   2.063       .  S
C3            C4   1.386       .  A
C3            H6   1.082       .  S
C4            C5   1.390       .  A
C4          C653   1.485       .  S
C5            H7   1.081       .  S
Cu8          N11   2.063       .  S
Cu9          N19   2.085       .  S
Cu10         N12   2.100       .  S
Cu10         N18   2.101       .  S
N11          N12   1.322       .  A
N11          C15   1.341       .  A
N12          C13   1.351       .  A
C13          C14   1.393       .  A
C13          H16   1.082       .  S
C14          C15   1.382       .  A
C14         C629   1.487       .  S
C15          H17   1.082       .  S
N18          N19   1.324       .  A
N18          C22   1.348       .  A
N19          C20   1.347       .  A
C20          C21   1.388       .  A
C20          H23   1.081       .  S
C21          C22   1.392       .  A
C21         C621   1.495       .  S
C22          H24   1.081       .  S
O25         Cu33   2.024       .  S
O25          C35   1.280       .  A
O26         Cu33   2.035   1_655  S
O26          C36   1.281       .  A
O27         Cu33   2.004   1_655  S
O27          C37   1.278       .  A
O28         Cu33   2.003       .  S
O28          C38   1.278       .  A
O29         Cu34   2.024       .  S
O29          C38   1.280       .  A
O30         Cu34   2.022   1_655  S
O30          C37   1.280       .  A
O31         Cu34   1.997   1_655  S
O31          C36   1.277       .  A
O32         Cu34   1.993       .  S
O32          C35   1.276       .  A
Cu33        Cu34   2.370       .  S
C35         C565   1.480       .  S
C36         C581   1.487       .  S
C37         C597   1.484       .  S
C38         C645   1.483       .  S
N39          N40   1.324       .  A
N39          C43   1.346       .  A
N39         Cu47   2.084       .  S
N40          C41   1.350       .  A
N40         Cu46   2.099       .  S
C41          C42   1.390       .  A
C41          H44   1.082       .  S
C42          C43   1.385       .  A
C42         C541   1.489       .  S
C43          H45   1.082       .  S
Cu46         N49   2.099       .  S
Cu47         N57   2.083       .  S
Cu48         N50   2.065       .  S
Cu48         N56   2.064       .  S
N49          N50   1.323       .  A
N49          C53   1.350       .  A
N50          C51   1.341       .  A
C51          C52   1.383       .  A
C51          H54   1.081       .  S
C52          C53   1.392       .  A
C52         C549   1.486       .  S
C53          H55   1.082       .  S
N56          N57   1.320       .  A
N56          C60   1.346       .  A
N57          C58   1.345       .  A
C58          C59   1.389       .  A
C58          H61   1.081       .  S
C59          C60   1.386       .  A
C59         C605   1.484       .  S
C60          H62   1.082       .  S
O63         Cu71   2.005       .  S
O63          C73   1.279       .  A
O64         Cu71   2.012   1_545  S
O64          C74   1.279       .  A
O65         Cu71   1.996       .  S
O65          C75   1.276       .  A
O66         Cu71   1.996   1_545  S
O66          C76   1.276       .  A
O67         Cu72   2.027   1_545  S
O67          C76   1.281       .  A
O68         Cu72   2.026       .  S
O68          C75   1.281       .  A
O69         Cu72   2.015   1_545  S
O69          C74   1.279       .  A
O70         Cu72   2.011       .  S
O70          C73   1.278       .  A
Cu71        Cu72   2.370       .  S
C73         C493   1.480       .  S
C74         C501   1.483       .  S
C75         C525   1.482       .  S
C76         C637   1.483       .  S
O77         Cu85   2.000       .  S
O77          C87   1.277       .  A
O78         Cu85   1.999   1_565  S
O78          C88   1.276       .  A
O79         Cu85   2.040   1_565  S
O79          C89   1.282       .  A
O80         Cu85   2.034       .  S
O80          C90   1.281       .  A
O81         Cu86   2.004       .  S
O81          C90   1.277       .  A
O82         Cu86   2.000   1_565  S
O82          C89   1.278       .  A
O83         Cu86   2.026   1_565  S
O83          C88   1.281       .  A
O84         Cu86   2.028       .  S
O84          C87   1.280       .  A
Cu85        Cu86   2.368       .  S
C87         C469   1.486       .  S
C88         C557   1.482       .  S
C89         C461   1.491       .  S
C90         C437   1.488       .  S
N91          N92   1.320       .  A
N91          C95   1.344       .  A
N91         Cu99   2.067       .  S
N92          C93   1.346       .  A
N92         Cu98   2.078       .  S
C93          C94   1.389       .  A
C93          H96   1.082       .  S
C94          C95   1.385       .  A
C94         C421   1.484       .  S
C95          H97   1.082       .  S
Cu98        N101   2.078       .  S
Cu99        N109   2.066       .  S
Cu100       N102   2.077       .  S
Cu100       N108   2.077       .  S
N101        N102   1.323       .  A
N101        C105   1.345       .  A
N102        C103   1.344       .  A
C103        C104   1.387       .  A
C103        H106   1.081       .  S
C104        C105   1.386       .  A
C104        C405   1.483       .  S
C105        H107   1.082       .  S
N108        N109   1.321       .  A
N108        C112   1.347       .  A
N109        C110   1.342       .  A
C110        C111   1.384       .  A
C110        H113   1.082       .  S
C111        C112   1.389       .  A
C111        C517   1.483       .  S
C112        H114   1.081       .  S
O115       Cu123   2.000       .  S
O115        C125   1.277       .  A
O116       Cu123   2.005   1_655  S
O116        C126   1.278       .  A
O117       Cu123   2.020       .  S
O117        C127   1.280       .  A
O118       Cu123   2.022   1_655  S
O118        C128   1.280       .  A
O119       Cu124   2.012   1_655  S
O119        C128   1.278       .  A
O120       Cu124   2.014       .  S
O120        C127   1.279       .  A
O121       Cu124   2.037   1_655  S
O121        C126   1.282       .  A
O122       Cu124   2.031       .  S
O122        C125   1.281       .  A
Cu123      Cu124   2.369       .  S
C125        C365   1.486       .  S
C126        C381   1.489       .  S
C127        C429   1.486       .  S
C128        C389   1.486       .  S
N129        N130   1.322       .  A
N129        C133   1.345       .  A
N129       Cu137   2.079       .  S
N130        C131   1.347       .  A
N130       Cu136   2.088       .  S
C131        C132   1.391       .  A
C131        H134   1.081       .  S
C132        C133   1.388       .  A
C132        C477   1.491       .  S
C133        H135   1.081       .  S
Cu136       N139   2.088       .  S
Cu137       N147   2.079       .  S
Cu138       N140   2.081       .  S
Cu138       N146   2.081       .  S
N139        N140   1.323       .  A
N139        C143   1.348       .  A
N140        C141   1.346       .  A
C141        C142   1.386       .  A
C141        H144   1.082       .  S
C142        C143   1.389       .  A
C142        C341   1.486       .  S
C143        H145   1.081       .  S
N146        N147   1.321       .  A
N146        C150   1.347       .  A
N147        C148   1.346       .  A
C148        C149   1.387       .  A
C148        H151   1.082       .  S
C149        C150   1.388       .  A
C149        C397   1.486       .  S
C150        H152   1.080       .  S
O153       Cu161   2.028   1_556  S
O153        C163   1.281       .  A
O154       Cu161   2.039       .  S
O154        C164   1.282       .  A
O155       Cu161   1.995       .  S
O155        C165   1.276       .  A
O156       Cu161   2.004   1_556  S
O156        C166   1.278       .  A
O157       Cu162   2.031   1_556  S
O157        C166   1.281       .  A
O158       Cu162   2.028       .  S
O158        C165   1.280       .  A
O159       Cu162   2.005       .  S
O159        C164   1.278       .  A
O160       Cu162   1.999   1_556  S
O160        C163   1.277       .  A
Cu161      Cu162   2.369       .  S
C163        C413   1.484       .  S
C164        C533   1.492       .  S
C165        C325   1.480       .  S
C166        C309   1.487       .  S
O167       Cu175   1.979       .  S
O167        C177   1.274       .  A
O168       Cu175   1.985   1_554  S
O168        C178   1.275       .  A
O169       Cu175   2.034       .  S
O169        C179   1.281       .  A
O170       Cu175   2.037   1_554  S
O170        C180   1.282       .  A
O171       Cu176   2.003   1_554  S
O171        C180   1.278       .  A
O172       Cu176   2.005       .  S
O172        C179   1.278       .  A
O173       Cu176   2.030   1_554  S
O173        C178   1.281       .  A
O174       Cu176   2.025       .  S
O174        C177   1.280       .  A
Cu175      Cu176   2.370       .  S
C177        C277   1.475       .  S
C178        C293   1.478       .  S
C179        C349   1.488       .  S
C180        C613   1.490       .  S
N181        N182   1.321       .  A
N181        C185   1.347       .  A
N181       Cu189   2.086       .  S
N182        C183   1.345       .  A
N182       Cu188   2.071       .  S
C183        C184   1.386       .  A
C183        H186   1.081       .  S
C184        C185   1.390       .  A
C184        C317   1.486       .  S
C185        H187   1.082       .  S
Cu188       N191   2.071       .  S
Cu189       N199   2.086       .  S
Cu190       N192   2.102       .  S
Cu190       N198   2.102       .  S
N191        N192   1.323       .  A
N191        C195   1.344       .  A
N192        C193   1.350       .  A
C193        C194   1.392       .  A
C193        H196   1.081       .  S
C194        C195   1.383       .  A
C194        C453   1.488       .  S
C195        H197   1.082       .  S
N198        N199   1.323       .  A
N198        C202   1.349       .  A
N199        C200   1.346       .  A
C200        C201   1.389       .  A
C200        H203   1.081       .  S
C201        C202   1.393       .  A
C201        C373   1.497       .  S
C202        H204   1.081       .  S
N205        N206   1.322       .  A
N205        C209   1.348       .  A
N205       Cu213   2.092       .  S
N206        C207   1.344       .  A
N206       Cu212   2.069       .  S
C207        C208   1.386       .  A
C207        H210   1.082       .  S
C208        C209   1.391       .  A
C208        C445   1.488       .  S
C209        H211   1.082       .  S
Cu212       N215   2.069       .  S
Cu213       N223   2.093       .  S
Cu214       N216   2.084       .  S
Cu214       N222   2.084       .  S
N215        N216   1.321       .  A
N215        C219   1.344       .  A
N216        C217   1.347       .  A
C217        C218   1.388       .  A
C217        H220   1.082       .  S
C218        C219   1.384       .  A
C218        C301   1.482       .  S
C219        H221   1.081       .  S
N222        N223   1.323       .  A
N222        C226   1.346       .  A
N223        C224   1.347       .  A
C224        C225   1.392       .  A
C224        H227   1.082       .  S
C225        C226   1.388       .  A
C225        C589   1.493       .  S
C226        H228   1.082       .  S
N229        N230   1.321       .  A
N229        C233   1.344       .  A
N229       Cu237   2.074       .  S
N230        C231   1.342       .  A
N230       Cu236   2.057       .  S
C231        C232   1.383       .  A
C231        H234   1.081       .  S
C232        C233   1.388       .  A
C232        C285   1.478       .  S
C233        H235   1.081       .  S
Cu236       N239   2.058       .  S
Cu237       N247   2.075       .  S
Cu238       N240   2.084       .  S
Cu238       N246   2.085       .  S
N239        N240   1.320       .  A
N239        C243   1.342       .  A
N240        C241   1.347       .  A
C241        C242   1.390       .  A
C241        H244   1.081       .  S
C242        C243   1.384       .  A
C242        C509   1.484       .  S
C243        H245   1.082       .  S
N246        N247   1.322       .  A
N246        C250   1.346       .  A
N247        C248   1.345       .  A
C248        C249   1.387       .  A
C248        H251   1.081       .  S
C249        C250   1.388       .  A
C249        C357   1.487       .  S
C250        H252   1.082       .  S
N253        N254   1.320       .  A
N253        C257   1.344       .  A
N253       Cu261   2.073       .  S
N254        C255   1.344       .  A
N254       Cu260   2.064       .  S
C255        C256   1.386       .  A
C255        H258   1.081       .  S
C256        C257   1.389       .  A
C256        C333   1.484       .  S
C257        H259   1.082       .  S
Cu260       N263   2.064       .  S
Cu261       N271   2.074       .  S
Cu262       N264   2.076       .  S
Cu262       N270   2.076       .  S
N263        N264   1.320       .  A
N263        C267   1.341       .  A
N264        C265   1.347       .  A
C265        C266   1.388       .  A
C265        H268   1.082       .  S
C266        C267   1.385       .  A
C266        C485   1.482       .  S
C267        H269   1.082       .  S
N270        N271   1.323       .  A
N270        C274   1.343       .  A
N271        C272   1.345       .  A
C272        C273   1.387       .  A
C272        H275   1.083       .  S
C273        C274   1.387       .  A
C273        C573   1.485       .  S
C274        H276   1.083       .  S
C277        C278   1.406       .  A
C277        C282   1.405       .  A
C278        C279   1.392       .  A
C278        H287   1.083       .  S
C279        C280   1.398       .  A
C279        H288   1.083       .  S
C280        C286   1.399       .  A
C280        C281   1.415       .  A
C281        C283   1.401       .  A
C281        C282   1.405       .  A
C282        H289   1.083       .  S
C283        C284   1.398       .  A
C283        H290   1.083       .  S
C284        C285   1.407       .  A
C284        H291   1.083       .  S
C285        C286   1.402       .  A
C286        H292   1.082       .  S
C293        C294   1.406       .  A
C293        C298   1.406       .  A
C294        C295   1.394       .  A
C294        H303   1.084       .  S
C295        C296   1.400       .  A
C295        H304   1.082       .  S
C296        C302   1.404       .  A
C296        C297   1.415       .  A
C297        C299   1.402       .  A
C297        C298   1.408       .  A
C298        H305   1.082       .  S
C299        C300   1.399       .  A
C299        H306   1.082       .  S
C300        C301   1.406       .  A
C300        H307   1.083       .  S
C301        C302   1.404       .  A
C302        H308   1.082       .  S
C309        C310   1.407       .  A
C309        C314   1.409       .  A
C310        C311   1.397       .  A
C310        H319   1.083       .  S
C311        C312   1.400       .  A
C311        H320   1.083       .  S
C312        C318   1.406       .  A
C312        C313   1.414       .  A
C313        C315   1.403       .  A
C313        C314   1.410       .  A
C314        H321   1.083       .  S
C315        C316   1.401       .  A
C315        H322   1.083       .  S
C316        C317   1.407       .  A
C316        H323   1.083       .  S
C317        C318   1.406       .  A
C318        H324   1.083       .  S
C325        C326   1.406       .  A
C325        C330   1.406       .  A
C326        C327   1.395       .  A
C326        H335   1.084       .  S
C327        C328   1.400       .  A
C327        H336   1.082       .  S
C328        C334   1.403       .  A
C328        C329   1.414       .  A
C329        C331   1.402       .  A
C329        C330   1.407       .  A
C330        H337   1.083       .  S
C331        C332   1.399       .  A
C331        H338   1.082       .  S
C332        C333   1.407       .  A
C332        H339   1.083       .  S
C333        C334   1.406       .  A
C334        H340   1.081       .  S
C341        C342   1.407       .  A
C341        C346   1.406       .  A
C342        C343   1.400       .  A
C342        H351   1.082       .  S
C343        C344   1.403       .  A
C343        H352   1.085       .  S
C344        C350   1.409       .  A
C344        C345   1.414       .  A
C345        C347   1.400       .  A
C345        C346   1.406       .  A
C346        H353   1.085       .  S
C347        C348   1.397       .  A
C347        H354   1.085       .  S
C348        C349   1.408       .  A
C348        H355   1.082       .  S
C349        C350   1.409       .  A
C350        H356   1.085       .  S
C357        C358   1.407       .  A
C357        C362   1.407       .  A
C358        C359   1.399       .  A
C358        H367   1.084       .  S
C359        C360   1.402       .  A
C359        H368   1.080       .  S
C360        C366   1.408       .  A
C360        C361   1.413       .  A
C361        C363   1.401       .  A
C361        C362   1.406       .  A
C362        H369   1.079       .  S
C363        C364   1.397       .  A
C363        H370   1.080       .  S
C364        C365   1.408       .  A
C364        H371   1.084       .  S
C365        C366   1.408       .  A
C366        H372   1.080       .  S
C373        C374   1.410       .  A
C373        C378   1.409       .  A
C374        C375   1.401       .  A
C374        H383   1.079       .  S
C375        C376   1.402       .  A
C375        H384   1.087       .  S
C376        C382   1.411       .  A
C376        C377   1.414       .  A
C377        C379   1.401       .  A
C377        C378   1.408       .  A
C378        H385   1.086       .  S
C379        C380   1.397       .  A
C379        H386   1.087       .  S
C380        C381   1.408       .  A
C380        H387   1.082       .  S
C381        C382   1.409       .  A
C382        H388   1.087       .  S
C389        C390   1.405       .  A
C389        C394   1.410       .  A
C390        C391   1.399       .  A
C390        H399   1.085       .  S
C391        C392   1.403       .  A
C391        H400   1.079       .  S
C392        C398   1.407       .  A
C392        C393   1.413       .  A
C393        C395   1.404       .  A
C393        C394   1.408       .  A
C394        H401   1.081       .  S
C395        C396   1.401       .  A
C395        H402   1.081       .  S
C396        C397   1.406       .  A
C396        H403   1.084       .  S
C397        C398   1.408       .  A
C398        H404   1.079       .  S
C405        C406   1.406       .  A
C405        C410   1.409       .  A
C406        C407   1.396       .  A
C406        H415   1.083       .  S
C407        C408   1.402       .  A
C407        H416   1.081       .  S
C408        C414   1.403       .  A
C408        C409   1.412       .  A
C409        C411   1.404       .  A
C409        C410   1.406       .  A
C410        H417   1.080       .  S
C411        C412   1.400       .  A
C411        H418   1.081       .  S
C412        C413   1.406       .  A
C412        H419   1.084       .  S
C413        C414   1.408       .  A
C414        H420   1.081       .  S
C421        C422   1.405       .  A
C421        C426   1.408       .  A
C422        C423   1.398       .  A
C422        H431   1.082       .  S
C423        C424   1.402       .  A
C423        H432   1.084       .  S
C424        C430   1.405       .  A
C424        C425   1.413       .  A
C425        C427   1.403       .  A
C425        C426   1.406       .  A
C426        H433   1.085       .  S
C427        C428   1.400       .  A
C427        H434   1.084       .  S
C428        C429   1.407       .  A
C428        H435   1.082       .  S
C429        C430   1.408       .  A
C430        H436   1.085       .  S
C437        C438   1.408       .  A
C437        C442   1.408       .  A
C438        C439   1.398       .  A
C438        H447   1.083       .  S
C439        C440   1.401       .  A
C439        H448   1.084       .  S
C440        C446   1.407       .  A
C440        C441   1.414       .  A
C441        C443   1.402       .  A
C441        C442   1.409       .  A
C442        H449   1.084       .  S
C443        C444   1.399       .  A
C443        H450   1.084       .  S
C444        C445   1.408       .  A
C444        H451   1.082       .  S
C445        C446   1.407       .  A
C446        H452   1.083       .  S
C453        C454   1.408       .  A
C453        C458   1.404       .  A
C454        C455   1.402       .  A
C454        H463   1.082       .  S
C455        C456   1.404       .  A
C455        H464   1.085       .  S
C456        C462   1.413       .  A
C456        C457   1.415       .  A
C457        C459   1.398       .  A
C457        C458   1.406       .  A
C458        H465   1.085       .  S
C459        C460   1.395       .  A
C459        H466   1.085       .  S
C460        C461   1.408       .  A
C460        H467   1.082       .  S
C461        C462   1.411       .  A
C462        H468   1.085       .  S
C469        C470   1.407       .  A
C469        C474   1.409       .  A
C470        C471   1.395       .  A
C470        H479   1.083       .  S
C471        C472   1.400       .  A
C471        H480   1.083       .  S
C472        C478   1.406       .  A
C472        C473   1.414       .  A
C473        C475   1.402       .  A
C473        C474   1.410       .  A
C474        H481   1.083       .  S
C475        C476   1.400       .  A
C475        H482   1.082       .  S
C476        C477   1.408       .  A
C476        H483   1.082       .  S
C477        C478   1.407       .  A
C478        H484   1.082       .  S
C485        C486   1.406       .  A
C485        C490   1.408       .  A
C486        C487   1.393       .  A
C486        H495   1.082       .  S
C487        C488   1.399       .  A
C487        H496   1.084       .  S
C488        C494   1.400       .  A
C488        C489   1.413       .  A
C489        C491   1.404       .  A
C489        C490   1.407       .  A
C490        H497   1.083       .  S
C491        C492   1.401       .  A
C491        H498   1.084       .  S
C492        C493   1.407       .  A
C492        H499   1.083       .  S
C493        C494   1.404       .  A
C494        H500   1.084       .  S
C501        C502   1.407       .  A
C501        C506   1.407       .  A
C502        C503   1.398       .  A
C502        H511   1.082       .  S
C503        C504   1.402       .  A
C503        H512   1.085       .  S
C504        C510   1.406       .  A
C504        C505   1.414       .  A
C505        C507   1.400       .  A
C505        C506   1.404       .  A
C506        H513   1.086       .  S
C507        C508   1.396       .  A
C507        H514   1.085       .  S
C508        C509   1.407       .  A
C508        H515   1.081       .  S
C509        C510   1.407       .  A
C510        H516   1.085       .  S
C517        C518   1.405       .  A
C517        C522   1.408       .  A
C518        C519   1.398       .  A
C518        H527   1.083       .  S
C519        C520   1.403       .  A
C519        H528   1.083       .  S
C520        C526   1.403       .  A
C520        C521   1.412       .  A
C521        C523   1.403       .  A
C521        C522   1.403       .  A
C522        H529   1.082       .  S
C523        C524   1.399       .  A
C523        H530   1.083       .  S
C524        C525   1.405       .  A
C524        H531   1.083       .  S
C525        C526   1.408       .  A
C526        H532   1.084       .  S
C533        C534   1.409       .  A
C533        C538   1.410       .  A
C534        C535   1.397       .  A
C534        H543   1.083       .  S
C535        C536   1.400       .  A
C535        H544   1.083       .  S
C536        C542   1.409       .  A
C536        C537   1.415       .  A
C537        C539   1.403       .  A
C537        C538   1.413       .  A
C538        H545   1.083       .  S
C539        C540   1.402       .  A
C539        H546   1.083       .  S
C540        C541   1.407       .  A
C540        H547   1.083       .  S
C541        C542   1.406       .  A
C542        H548   1.083       .  S
C549        C550   1.408       .  A
C549        C554   1.407       .  A
C550        C551   1.396       .  A
C550        H559   1.082       .  S
C551        C552   1.400       .  A
C551        H560   1.084       .  S
C552        C558   1.405       .  A
C552        C553   1.415       .  A
C553        C555   1.401       .  A
C553        C554   1.407       .  A
C554        H561   1.084       .  S
C555        C556   1.398       .  A
C555        H562   1.084       .  S
C556        C557   1.407       .  A
C556        H563   1.083       .  S
C557        C558   1.405       .  A
C558        H564   1.085       .  S
C565        C566   1.407       .  A
C565        C570   1.406       .  A
C566        C567   1.394       .  A
C566        H575   1.082       .  S
C567        C568   1.400       .  A
C567        H576   1.086       .  S
C568        C574   1.401       .  A
C568        C569   1.413       .  A
C569        C571   1.402       .  A
C569        C570   1.405       .  A
C570        H577   1.086       .  S
C571        C572   1.399       .  A
C571        H578   1.085       .  S
C572        C573   1.407       .  A
C572        H579   1.082       .  S
C573        C574   1.406       .  A
C574        H580   1.085       .  S
C581        C582   1.407       .  A
C581        C586   1.410       .  A
C582        C583   1.394       .  A
C582        H591   1.083       .  S
C583        C584   1.399       .  A
C583        H592   1.083       .  S
C584        C590   1.405       .  A
C584        C585   1.414       .  A
C585        C587   1.403       .  A
C585        C586   1.412       .  A
C586        H593   1.084       .  S
C587        C588   1.403       .  A
C587        H594   1.083       .  S
C588        C589   1.409       .  A
C588        H595   1.082       .  S
C589        C590   1.407       .  A
C590        H596   1.082       .  S
C597        C598   1.407       .  A
C597        C602   1.409       .  A
C598        C599   1.396       .  A
C598        H607   1.084       .  S
C599        C600   1.401       .  A
C599        H608   1.083       .  S
C600        C606   1.404       .  A
C600        C601   1.413       .  A
C601        C603   1.403       .  A
C601        C602   1.407       .  A
C602        H609   1.083       .  S
C603        C604   1.400       .  A
C603        H610   1.083       .  S
C604        C605   1.407       .  A
C604        H611   1.083       .  S
C605        C606   1.405       .  A
C606        H612   1.083       .  S
C613        C614   1.408       .  A
C613        C618   1.410       .  A
C614        C615   1.396       .  A
C614        H623   1.083       .  S
C615        C616   1.400       .  A
C615        H624   1.084       .  S
C616        C622   1.407       .  A
C616        C617   1.414       .  A
C617        C619   1.403       .  A
C617        C618   1.412       .  A
C618        H625   1.085       .  S
C619        C620   1.402       .  A
C619        H626   1.084       .  S
C620        C621   1.409       .  A
C620        H627   1.081       .  S
C621        C622   1.408       .  A
C622        H628   1.083       .  S
C629        C630   1.405       .  A
C629        C634   1.410       .  A
C630        C631   1.400       .  A
C630        H639   1.082       .  S
C631        C632   1.404       .  A
C631        H640   1.084       .  S
C632        C638   1.404       .  A
C632        C633   1.411       .  A
C633        C635   1.404       .  A
C633        C634   1.404       .  A
C634        H641   1.084       .  S
C635        C636   1.399       .  A
C635        H642   1.085       .  S
C636        C637   1.405       .  A
C636        H643   1.083       .  S
C637        C638   1.410       .  A
C638        H644   1.085       .  S
C645        C646   1.406       .  A
C645        C650   1.409       .  A
C646        C647   1.395       .  A
C646        H655   1.083       .  S
C647        C648   1.400       .  A
C647        H656   1.084       .  S
C648        C654   1.403       .  A
C648        C649   1.414       .  A
C649        C651   1.403       .  A
C649        C650   1.409       .  A
C650        H657   1.084       .  S
C651        C652   1.401       .  A
C651        H658   1.084       .  S
C652        C653   1.407       .  A
C652        H659   1.082       .  S
C653        C654   1.405       .  A
C654        H660   1.084       .  S
