geometry optimzed in LAMMPS
_audit_creation_date              2020-11-30 
_audit_creation_method            'lammps2cif' 
_symmetry_space_group_name_H-M    'P1' 
_symmetry_Int_Tables_number       1 
_symmetry_cell_setting            triclinic 
loop_ 
_symmetry_equiv_pos_as_xyz 
  x,y,z 
_cell_length_a                    38.91177352535362 
_cell_length_b                    38.020511575319304 
_cell_length_c                    38.34076140827433 
_cell_angle_alpha                 88.98497669750914 
_cell_angle_beta                  89.9205206467111 
_cell_angle_gamma                 90.41812569123813 
loop_ 
_atom_site_label 
_atom_site_type_symbol 
_atom_site_fract_x 
_atom_site_fract_y 
_atom_site_fract_z 
_atom_site_charge 
O1          O  0.33538214  0.86918151  0.75333199    -0.79370
O2          O  0.41993165  0.85910416  0.74450219    -0.79390
O3          O  0.36273150  0.80987103  0.72534190    -0.79400
O4          O  0.40867638  0.95535347  0.72403289    -0.79340
O5          O  0.41619103  0.79446198  0.71425433    -0.79470
O6          O  0.37994569  0.92137315  0.75996706    -0.79390
O7          O  0.45099661  0.89884749  0.71561859    -0.79370
O8          O  0.30333337  0.84356917  0.71584303    -0.79410
C9          C  0.30799580  0.85330732  0.74666086     1.10320
C10         C  0.44533654  0.87994292  0.74269077     1.10200
C11         C  0.38911529  0.79047488  0.73217880     1.10340
C12         C  0.39747709  0.94867413  0.75463218     1.10220
O13         O  0.34934529  0.95847114  0.70027535    -0.79370
O14         O  0.38325068  0.81768907  0.65500294    -0.79450
O15         O  0.31854347  0.87274263  0.65049744    -0.79380
O16         O  0.42910240  0.89266337  0.64358244    -0.79360
O17         O  0.44463548  0.84734078  0.67535562    -0.79420
O18         O  0.30219344  0.90671524  0.69404701    -0.79380
O19         O  0.38214332  0.94461147  0.65507774    -0.79340
O20         O  0.32886813  0.80118017  0.66409521    -0.79410
Co21       Co  0.34336621  0.91215674  0.72616662     1.51530
Co22       Co  0.40029313  0.84034006  0.70122786     1.51690
Co23       Co  0.34491653  0.84327823  0.68478388     1.51570
Co24       Co  0.41509429  0.92034323  0.68438436     1.51470
O25         O  0.37543662  0.88558529  0.69615283    -1.41310
C26         C  0.36157323  0.96491944  0.66991655     1.10250
C27         C  0.35742508  0.79705712  0.64858246     1.10340
C28         C  0.29749048  0.89468378  0.66345150     1.10270
C29         C  0.44936883  0.86750968  0.64917767     1.10250
O30         O  0.23067373  0.87395005  0.82147451    -0.79370
O31         O  0.15067132  0.81396835  0.93039546    -0.79390
O32         O  0.22592012  0.82904716  0.86933022    -0.79400
O33         O  0.11511710  0.88034675  0.83452722    -0.79340
O34         O  0.22091085  0.81412971  0.92414713    -0.79470
O35         O  0.16348305  0.85840445  0.82275726    -0.79390
O36         O  0.12609961  0.82373148  0.87908000    -0.79370
O37         O  0.27170541  0.88365229  0.85935642    -0.79410
C38         C  0.26268319  0.87482735  0.82939373     1.10320
C39         C  0.13179092  0.80422384  0.90526027     1.10200
C40         C  0.23103333  0.80682642  0.89342978     1.10340
C41         C  0.13486816  0.86788103  0.81208347     1.10220
O42         O  0.14863099  0.93347735  0.84416856    -0.79370
O43         O  0.22006945  0.88526381  0.95901815    -0.79450
O44         O  0.23352482  0.92963442  0.89671374    -0.79380
O45         O  0.10801045  0.86613496  0.93553682    -0.79360
O46         O  0.15326622  0.88284507  0.96334654    -0.79420
O47         O  0.21370242  0.94381205  0.84654446    -0.79380
O48         O  0.12167966  0.92558668  0.89406347    -0.79340
O49         O  0.25799123  0.86917312  0.92239074    -0.79410
Co50       Co  0.18805776  0.89953210  0.83957847     1.51530
Co51       Co  0.18595524  0.85126624  0.94009103     1.51690
Co52       Co  0.22830296  0.88004766  0.88155302     1.51570
Co53       Co  0.12412799  0.87462221  0.88627915     1.51470
O54         O  0.17895817  0.87907259  0.89261871    -1.41310
C55         C  0.13458862  0.94594260  0.87118307     1.10250
C56         C  0.25105466  0.88247760  0.95110848     1.10340
C57         C  0.22934848  0.95257930  0.87335209     1.10270
C58         C  0.12214694  0.87416911  0.96375609     1.10250
O59         O  0.35394160  0.77104368  0.84968087    -0.79370
O60         O  0.31418003  0.63702523  0.88478954    -0.79390
O61         O  0.41755515  0.66571943  0.83609891    -0.79400
O62         O  0.30947340  0.71934767  0.93500316    -0.79340
O63         O  0.36490435  0.64483032  0.83395539    -0.79470
O64         O  0.30957405  0.72293774  0.87755491    -0.79390
O65         O  0.31460025  0.64855859  0.94086822    -0.79370
O66         O  0.38765772  0.72829753  0.83066279    -0.79410
C67         C  0.36979427  0.75667366  0.82491231     1.10320
C68         C  0.29828393  0.64331733  0.91282895     1.10200
C69         C  0.39226245  0.65493846  0.81870984     1.10340
C70         C  0.29479948  0.72880484  0.90662139     1.10220
O71         O  0.35589107  0.76050267  0.91927644    -0.79370
O72         O  0.41637104  0.62100761  0.88461144    -0.79450
O73         O  0.45256116  0.72489757  0.85959078    -0.79380
O74         O  0.38333599  0.65416770  0.96571954    -0.79360
O75         O  0.36592489  0.60959147  0.93418072    -0.79420
O76         O  0.41026850  0.75297288  0.88581439    -0.79380
O77         O  0.38214079  0.72462730  0.95549082    -0.79340
O78         O  0.43914648  0.66998414  0.90538824    -0.79410
Co79       Co  0.36041751  0.73112438  0.87818179     1.51530
Co80       Co  0.36494140  0.63098939  0.88457563     1.51690
Co81       Co  0.41156126  0.70008886  0.87342708     1.51570
Co82       Co  0.34927897  0.68668961  0.94677594     1.51470
O83         O  0.36907156  0.68289227  0.89800163    -1.41310
C84         C  0.37229945  0.75488791  0.94708634     1.10250
C85         C  0.44240185  0.63815606  0.89602741     1.10340
C86         C  0.44183573  0.75175776  0.87546774     1.10270
C87         C  0.37901326  0.62159586  0.96224436     1.10250
O88         O  0.29370441  0.04107678  0.85508343    -0.79370
O89         O  0.40703225  0.12525300  0.94804093    -0.79390
O90         O  0.37583068  0.04212183  0.94415810    -0.79400
O91         O  0.32320872  0.15055622  0.86748841    -0.79340
O92         O  0.42520130  0.06290202  0.96094551    -0.79470
O93         O  0.30799397  0.10018313  0.89055841    -0.79390
O94         O  0.36027320  0.15029335  0.92969283    -0.79370
O95         O  0.32819616  0.02133598  0.89645242    -0.79410
C96         C  0.29927458  0.02063208  0.88066128     1.10320
C97         C  0.38159025  0.14414952  0.95396615     1.10200
C98         C  0.40150343  0.04027701  0.96493291     1.10340
C99         C  0.30035770  0.13106473  0.88059286     1.10220
O100        O  0.36939131  0.10458823  0.84687188    -0.79370
O101        O  0.45136741  0.07779286  0.89971129    -0.79450
O102        O  0.38504584  0.01422673  0.84444173    -0.79380
O103        O  0.42104743  0.16097612  0.88725077    -0.79360
O104        O  0.44625946  0.11003649  0.89976656    -0.79420
O105        O  0.35118292  0.04739700  0.81375063    -0.79380
O106        O  0.38306803  0.15417462  0.82665600    -0.79340
O107        O  0.43018212  0.02570574  0.89311865    -0.79410
Co108      Co  0.33214277  0.07253423  0.85433535     1.51530
Co109      Co  0.40432658  0.08327891  0.91910491     1.51690
Co110      Co  0.37926083  0.03392511  0.89209586     1.51570
Co111      Co  0.37279584  0.14884265  0.87824035     1.51470
O112        O  0.37838864  0.09050980  0.87534555    -1.41310
C113        C  0.37080100  0.12483327  0.81981124     1.10250
C114        C  0.45629870  0.04539143  0.89470614     1.10340
C115        C  0.37250846  0.02290315  0.81537078     1.10270
C116        C  0.44760377  0.14315031  0.89207583     1.10250
O117        O  0.33609471  0.80628089  0.03777617    -0.79370
O118        O  0.43655537  0.86621503  0.09600221    -0.79390
O119        O  0.42458090  0.87306609  0.02315460    -0.79400
O120        O  0.36911315  0.83140120  0.13935187    -0.79340
O121        O  0.45913574  0.91307269  0.04582195    -0.79470
O122        O  0.38613642  0.81631100  0.08653745    -0.79390
O123        O  0.41600203  0.88611180  0.14489485    -0.79370
O124        O  0.35917951  0.85087887  0.00518815    -0.79410
C125        C  0.34568292  0.81979148  0.00875875     1.10320
C126        C  0.44077367  0.87363169  0.12770210     1.10200
C127        C  0.45357006  0.88983625  0.02287538     1.10340
C128        C  0.38037759  0.80807933  0.11822211     1.10220
O129        O  0.31696325  0.83149263  0.10185982    -0.79370
O130        O  0.39841467  0.94567313  0.03469978    -0.79450
O131        O  0.33066288  0.91762977  0.02771844    -0.79380
O132        O  0.36626186  0.93795604  0.12629090    -0.79360
O133        O  0.41883795  0.93782412  0.10309586    -0.79420
O134        O  0.30804183  0.86784933  0.04466202    -0.79380
O135        O  0.31431467  0.88325513  0.12644827    -0.79340
O136        O  0.38563885  0.91787290  0.98596898    -0.79410
Co137      Co  0.34964881  0.84375702  0.06419799     1.51530
Co138      Co  0.41513897  0.90311423  0.06630016     1.51690
Co139      Co  0.37656935  0.89560569  0.02948640     1.51570
Co140      Co  0.36596864  0.88525441  0.13251108     1.51470
O141        O  0.36982947  0.88488298  0.08025285    -1.41310
C142        C  0.29975607  0.85490805  0.11674363     1.10250
C143        C  0.39259623  0.94636570  0.00134498     1.10340
C144        C  0.30509007  0.89738943  0.02988600     1.10270
C145        C  0.39280943  0.95415347  0.11400096     1.10250
O146        O  0.54506466  0.84624673  0.80457346    -0.79370
O147        O  0.59694122  0.95974091  0.86663533    -0.79390
O148        O  0.52984866  0.94946071  0.87097140    -0.79400
O149        O  0.63786266  0.88525791  0.83474336    -0.79340
O150        O  0.54937743  0.98112511  0.91447555    -0.79470
O151        O  0.58679272  0.90205015  0.81876589    -0.79390
O152        O  0.64426205  0.93625185  0.88500298    -0.79370
O153        O  0.52021849  0.89486228  0.82294191    -0.79410
C154        C  0.52301789  0.87017567  0.80043802     1.10320
C155        C  0.62829716  0.96336855  0.87441365     1.10200
C156        C  0.52584350  0.97497130  0.89203765     1.10340
C157        C  0.61757717  0.89622581  0.81096980     1.10220
O158        O  0.60457382  0.83045984  0.83822290    -0.79370
O159        O  0.55104863  0.91870743  0.94982885    -0.79450
O160        O  0.50078327  0.84802194  0.87986321    -0.79380
O161        O  0.62805963  0.88619859  0.93876378    -0.79360
O162        O  0.60978970  0.94140264  0.93923427    -0.79420
O163        O  0.54774568  0.82075068  0.87084464    -0.79380
O164        O  0.62539495  0.83185829  0.89083560    -0.79340
O165        O  0.50506430  0.89878369  0.92606298    -0.79410
Co166      Co  0.56566622  0.86308436  0.84588604     1.51530
Co167      Co  0.57095620  0.93635375  0.90559349     1.51690
Co168      Co  0.52045855  0.89696546  0.87654487     1.51570
Co169      Co  0.62998172  0.88465356  0.88731616     1.51470
O170        O  0.57594851  0.88744959  0.88848115    -1.41310
C171        C  0.61908480  0.81494323  0.86345643     1.10250
C172        C  0.52151147  0.90644923  0.95298144     1.10340
C173        C  0.51643590  0.81937649  0.87755569     1.10270
C174        C  0.62441575  0.91531252  0.95402230     1.10250
O175        O  0.85339556  0.30862867  0.73232900    -0.79370
O176        O  0.87924684  0.46286562  0.71817931    -0.79390
O177        O  0.89426985  0.37812757  0.76057065    -0.79400
O178        O  0.83658173  0.40903204  0.74432677    -0.79340
O179        O  0.93078792  0.41498570  0.73746747    -0.79470
O180        O  0.80591968  0.36322217  0.72939757    -0.79390
O181        O  0.82377983  0.46680120  0.70457525    -0.79370
O182        O  0.90852146  0.31175711  0.74790166    -0.79410
C183        C  0.87919356  0.29778226  0.75096388     1.10320
C184        C  0.84956633  0.47819662  0.72063689     1.10200
C185        C  0.92099006  0.39680252  0.76340851     1.10340
C186        C  0.81299189  0.38715818  0.75082620     1.10220
O187        O  0.80910500  0.36332021  0.65272017    -0.79370
O188        O  0.94302096  0.39671522  0.66722397    -0.79450
O189        O  0.90505188  0.31678198  0.67898314    -0.79380
O190        O  0.84439566  0.43804842  0.64560668    -0.79360
O191        O  0.89894293  0.44923349  0.64625012    -0.79420
O192        O  0.85424980  0.31258882  0.65619206    -0.79380
O193        O  0.79526861  0.40875091  0.68274497    -0.79340
O194        O  0.94517786  0.35801740  0.71047176    -0.79410
Co195      Co  0.83425843  0.34145203  0.69208748     1.51530
Co196      Co  0.90899739  0.42613104  0.69159086     1.51690
Co197      Co  0.89594550  0.34875186  0.71839785     1.51570
Co198      Co  0.84272507  0.42275869  0.69505756     1.51470
O199        O  0.87274593  0.38269487  0.68777856    -1.41310
C200        C  0.78979874  0.38892581  0.65752665     1.10250
C201        C  0.95848004  0.37259880  0.68396138     1.10340
C202        C  0.88471785  0.30295872  0.65778856     1.10270
C203        C  0.86974506  0.45470595  0.63362314     1.10250
O204        O  0.88069535  0.25643406  0.87007698    -0.79370
O205        O  0.81824883  0.13062500  0.88012315    -0.79390
O206        O  0.91949528  0.15567447  0.82755165    -0.79400
O207        O  0.81250960  0.21964416  0.90761588    -0.79340
O208        O  0.86768850  0.13313341  0.83059161    -0.79470
O209        O  0.85478717  0.25542803  0.89472746    -0.79390
O210        O  0.81189548  0.15253749  0.93239559    -0.79370
O211        O  0.90039580  0.22292701  0.82852162    -0.79410
C212        C  0.88608681  0.25089890  0.83749475     1.10320
C213        C  0.79939813  0.13838562  0.90560809     1.10200
C214        C  0.89318418  0.14342760  0.81268155     1.10340
C215        C  0.82241302  0.24966282  0.89726466     1.10220
O216        O  0.87251464  0.23951409  0.95475682    -0.79370
O217        O  0.92013564  0.11346733  0.88133479    -0.79450
O218        O  0.94651812  0.23470306  0.88506345    -0.79380
O219        O  0.88142781  0.16173280  0.95812510    -0.79360
O220        O  0.86779433  0.11217123  0.93351957    -0.79420
O221        O  0.91864077  0.25843749  0.92807447    -0.79380
O222        O  0.83046467  0.20654374  0.97520765    -0.79340
O223        O  0.94342131  0.16220554  0.89899699    -0.79410
Co224      Co  0.89259069  0.22145630  0.90984769     1.51530
Co225      Co  0.86902449  0.12600472  0.88215171     1.51690
Co226      Co  0.92074614  0.19214690  0.86413101     1.51570
Co227      Co  0.84782297  0.19004106  0.93119949     1.51470
O228        O  0.87214402  0.18055296  0.88666786    -1.41310
C229        C  0.85015582  0.23281984  0.97837768     1.10250
C230        C  0.94665629  0.13061506  0.89081447     1.10340
C231        C  0.94416961  0.25808352  0.90869981     1.10270
C232        C  0.87588779  0.12910511  0.96063362     1.10250
O233        O  0.72033587  0.41229509  0.81024747    -0.79370
O234        O  0.64446491  0.31334784  0.88408117    -0.79390
O235        O  0.75255726  0.33673443  0.90436084    -0.79400
O236        O  0.61620369  0.39510183  0.84899116    -0.79340
O237        O  0.71087110  0.30500056  0.88647401    -0.79470
O238        O  0.66169727  0.37312106  0.82227157    -0.79390
O239        O  0.60379152  0.34658170  0.90386389    -0.79370
O240        O  0.73519118  0.36444660  0.84004493    -0.79410
C241        C  0.73768949  0.38426448  0.81258912     1.10320
C242        C  0.61393324  0.31652791  0.89329670     1.10200
C243        C  0.74200951  0.30751762  0.89373575     1.10340
C244        C  0.63041750  0.38289360  0.82182404     1.10220
O245        O  0.66698508  0.44231282  0.84493559    -0.79370
O246        O  0.71312722  0.34115465  0.95621617    -0.79450
O247        O  0.77281707  0.39873094  0.88754612    -0.79380
O248        O  0.63731271  0.39725938  0.95037492    -0.79360
O249        O  0.64338945  0.33983688  0.95519189    -0.79420
O250        O  0.72965253  0.43443681  0.87706388    -0.79380
O251        O  0.64521073  0.44567070  0.89735959    -0.79340
O252        O  0.72456834  0.39570074  0.93909382    -0.79410
Co253      Co  0.69536834  0.39971849  0.85125204     1.51530
Co254      Co  0.67803024  0.32713757  0.91861824     1.51690
Co255      Co  0.72777912  0.38108426  0.89059272     1.51570
Co256      Co  0.62881441  0.39516568  0.89986205     1.51470
O257        O  0.67706994  0.37423234  0.89347882    -1.41310
C258        C  0.65490231  0.46052510  0.86917277     1.10250
C259        C  0.72542391  0.37191752  0.96230055     1.10340
C260        C  0.76163396  0.42954575  0.88526241     1.10270
C261        C  0.63648002  0.36933359  0.96839626     1.10250
O262        O  0.02801022  0.35362545  0.80427428    -0.79370
O263        O  0.09582566  0.45442514  0.91782860    -0.79390
O264        O  0.98050166  0.42189645  0.89152729    -0.79400
O265        O  0.13054266  0.38656001  0.82728182    -0.79340
O266        O  0.02973262  0.45184397  0.88804980    -0.79470
O267        O  0.07904343  0.40255028  0.81087602    -0.79390
O268        O  0.13333462  0.43567930  0.87853727    -0.79370
O269        O  0.01194526  0.40029249  0.83481795    -0.79410
C270        C  0.00697998  0.37860530  0.80948006     1.10320
C271        C  0.12111454  0.45942353  0.89750292     1.10200
C272        C  0.99638920  0.45083242  0.88598831     1.10340
C273        C  0.11060581  0.39841375  0.80380542     1.10220
O274        O  0.09403988  0.33058302  0.83038947    -0.79370
O275        O  0.03750448  0.44269762  0.95817497    -0.79450
O276        O  0.99773281  0.35111592  0.89045679    -0.79380
O277        O  0.13495355  0.38183966  0.93082954    -0.79360
O278        O  0.08421890  0.38995943  0.95558864    -0.79420
O279        O  0.04013333  0.32364473  0.86716854    -0.79380
O280        O  0.12405036  0.33107581  0.87945742    -0.79340
O281        O  0.01707305  0.39163139  0.94265195    -0.79410
Co282      Co  0.05750233  0.36516767  0.84157346     1.51530
Co283      Co  0.05896518  0.41857898  0.91988716     1.51690
Co284      Co  0.02192064  0.39660862  0.88836582     1.51570
Co285      Co  0.12695806  0.38387397  0.87964149     1.51470
O286        O  0.07415339  0.38431469  0.88395373    -1.41310
C287        C  0.11172014  0.31460422  0.85362708     1.10250
C288        C  0.01714904  0.41720533  0.96444026     1.10340
C289        C  0.01213251  0.32283015  0.88288790     1.10270
C290        C  0.11581134  0.38248880  0.95745456     1.10250
O291        O  0.85845062  0.31501588  0.06035000    -0.79370
O292        O  0.93057225  0.43645891  0.11440416    -0.79390
O293        O  0.90651765  0.39744506  0.00829167    -0.79400
O294        O  0.88398008  0.32703359  0.13714066    -0.79340
O295        O  0.93822101  0.40971721  0.05234456    -0.79470
O296        O  0.83073141  0.32343531  0.12009432    -0.79390
O297        O  0.93101654  0.38261301  0.13728702    -0.79370
O298        O  0.86381867  0.34479796  0.01246174    -0.79410
C299        C  0.86444225  0.31584080  0.02854084     1.10320
C300        C  0.94488295  0.41274755  0.13289595     1.10200
C301        C  0.93591266  0.40129725  0.02094354     1.10340
C302        C  0.85683042  0.30917393  0.13367370     1.10220
O303        O  0.81142403  0.39576693  0.09990521    -0.79370
O304        O  0.90571141  0.47266712  0.05377712    -0.79450
O305        O  0.80695888  0.38788880  0.03419061    -0.79380
O306        O  0.87747922  0.42953465  0.15269741    -0.79360
O307        O  0.85956108  0.45237501  0.10365227    -0.79420
O308        O  0.79354500  0.33808628  0.06196633    -0.79380
O309        O  0.82880760  0.37849826  0.15108162    -0.79340
O310        O  0.85712974  0.44676584  0.03690857    -0.79410
Co311      Co  0.83562081  0.35633219  0.07890819     1.51530
Co312      Co  0.89665290  0.42871738  0.07636740     1.51690
Co313      Co  0.86047645  0.39326020  0.03068515     1.51570
Co314      Co  0.88020005  0.37903468  0.14035060     1.51470
O315        O  0.87830826  0.38137351  0.08537057    -1.41310
C316        C  0.80522444  0.39096311  0.13163976     1.10250
C317        C  0.88029941  0.47113721  0.03285753     1.10340
C318        C  0.78644146  0.36107374  0.03906096     1.10270
C319        C  0.86530417  0.45530564  0.13593104     1.10250
O320        O  0.80683751  0.54495588  0.87461858    -0.79370
O321        O  0.89715482  0.60261723  0.95879639    -0.79390
O322        O  0.89582551  0.51808732  0.93516600    -0.79400
O323        O  0.82030665  0.63542785  0.89309505    -0.79340
O324        O  0.90556052  0.57076603  0.95742906    -0.79470
O325        O  0.81134292  0.60547984  0.84535249    -0.79390
O326        O  0.87242979  0.64944148  0.93783765    -0.79370
O327        O  0.83909027  0.50528218  0.89895734    -0.79410
C328        C  0.80970068  0.51596284  0.89016714     1.10320
C329        C  0.88162828  0.63119767  0.96401870     1.10200
C330        C  0.90043820  0.53752581  0.96118764     1.10340
C331        C  0.79992890  0.62301779  0.87080480     1.10220
O332        O  0.88344123  0.58874558  0.82199678    -0.79370
O333        O  0.94956215  0.55951422  0.91574053    -0.79450
O334        O  0.87368486  0.51849273  0.83352217    -0.79380
O335        O  0.92354403  0.64326180  0.87748068    -0.79360
O336        O  0.95100472  0.62356712  0.92434649    -0.79420
O337        O  0.83015610  0.54628663  0.80831480    -0.79380
O338        O  0.86599156  0.64055062  0.83397954    -0.79340
O339        O  0.93045448  0.53874975  0.86843800    -0.79410
Co340      Co  0.84612472  0.56707842  0.85019406     1.51530
Co341      Co  0.91322938  0.59593066  0.91082149     1.51690
Co342      Co  0.88391758  0.52590831  0.88512840     1.51570
Co343      Co  0.87069084  0.63645857  0.88635172     1.51470
O344        O  0.86906373  0.57932159  0.89351411    -1.41310
C345        C  0.87654455  0.61918819  0.81169027     1.10250
C346        C  0.95369279  0.53928325  0.89087005     1.10340
C347        C  0.85386512  0.52363893  0.80727488     1.10270
C348        C  0.95126722  0.64056728  0.89583494     1.10250
O349        O  0.82883574  0.89291496  0.24513350    -0.79370
O350        O  0.93933450  0.82377706  0.22711512    -0.79390
O351        O  0.83639719  0.80300539  0.21985418    -0.79400
O352        O  0.88046698  0.93602101  0.23932177    -0.79340
O353        O  0.87399087  0.83453910  0.24801434    -0.79470
O354        O  0.83297222  0.95883755  0.21590059    -0.79390
O355        O  0.93471676  0.88095396  0.23824080    -0.79370
O356        O  0.79184042  0.85790745  0.22042574    -0.79410
C357        C  0.80080691  0.87601317  0.24654236     1.10320
C358        C  0.94937780  0.85054031  0.24354767     1.10200
C359        C  0.85307927  0.80894080  0.24726182     1.10340
C360        C  0.85660726  0.95981931  0.23860859     1.10220
O361        O  0.84755882  0.93228419  0.15102467    -0.79370
O362        O  0.88906016  0.79587661  0.18455207    -0.79450
O363        O  0.80234215  0.86626861  0.14545706    -0.79380
O364        O  0.94156463  0.89798599  0.16403792    -0.79360
O365        O  0.92682045  0.84355142  0.16045166    -0.79420
O366        O  0.79358729  0.91012134  0.18062293    -0.79380
O367        O  0.89676888  0.95089781  0.16694058    -0.79340
O368        O  0.84896583  0.81145275  0.14680007    -0.79410
Co369      Co  0.84158751  0.91331685  0.19844458     1.51530
Co370      Co  0.90042934  0.84253448  0.20435312     1.51690
Co371      Co  0.82315335  0.83744096  0.18282120     1.51570
Co372      Co  0.90730178  0.91079032  0.20039909     1.51470
O373        O  0.86554992  0.87234790  0.18473168    -1.41310
C374        C  0.87164514  0.95329737  0.14654495     1.10250
C375        C  0.87397471  0.79202011  0.15553752     1.10340
C376        C  0.78503900  0.89254587  0.15424711     1.10270
C377        C  0.94532001  0.86859061  0.15032211     1.10250
O378        O  0.93661972  0.72385137  0.35158822    -0.79370
O379        O  0.83428638  0.65491599  0.44667637    -0.79390
O380        O  0.87215985  0.77100242  0.42264424    -0.79400
O381        O  0.93848551  0.63861454  0.39742244    -0.79340
O382        O  0.85563585  0.72098700  0.44804547    -0.79470
O383        O  0.93828756  0.65272901  0.34127133    -0.79390
O384        O  0.88879314  0.64287829  0.44969019    -0.79370
O385        O  0.92552419  0.72874717  0.40807734    -0.79410
C386        C  0.94488975  0.73489250  0.38195770     1.10320
C387        C  0.86050349  0.64844983  0.46485584     1.10200
C388        C  0.86390603  0.75380278  0.44977256     1.10340
C389        C  0.95332228  0.64002866  0.36800070     1.10220
O390        O  0.86834583  0.65232769  0.31781605    -0.79370
O391        O  0.79244014  0.70649494  0.42329203    -0.79450
O392        O  0.88497591  0.76178903  0.35880084    -0.79380
O393        O  0.83790515  0.61244733  0.40001906    -0.79360
O394        O  0.81233623  0.65800296  0.37564148    -0.79420
O395        O  0.86611596  0.72452059  0.32154295    -0.79380
O396        O  0.88881970  0.60867232  0.35020496    -0.79340
O397        O  0.82363960  0.73826533  0.38579057    -0.79410
Co398      Co  0.90041338  0.68803502  0.33548739     1.51530
Co399      Co  0.83559343  0.68994649  0.40788330     1.51690
Co400      Co  0.87581590  0.72947641  0.39857936     1.51570
Co401      Co  0.88829105  0.62890275  0.39906298     1.51470
O402        O  0.87927616  0.67991140  0.38311768    -1.41310
C403        C  0.87650621  0.62031898  0.32140071     1.10250
C404        C  0.79504867  0.73261666  0.40259602     1.10340
C405        C  0.87270927  0.75592577  0.32944773     1.10270
C406        C  0.81094483  0.62652922  0.38685344     1.10250
O407        O  0.71584538  0.92215903  0.32034926    -0.79370
O408        O  0.65521833  0.82114096  0.42430198    -0.79390
O409        O  0.76631237  0.84711746  0.37953433    -0.79400
O410        O  0.62964550  0.88022319  0.32601066    -0.79340
O411        O  0.71860839  0.81939797  0.39484055    -0.79470
O412        O  0.64666511  0.93561465  0.32323484    -0.79390
O413        O  0.63418698  0.82803981  0.37193502    -0.79370
O414        O  0.72026774  0.86478878  0.32991102    -0.79410
C415        C  0.72490776  0.89149172  0.31025247     1.10320
C416        C  0.64173056  0.80843384  0.39725129     1.10200
C417        C  0.75050191  0.81866274  0.38498325     1.10340
C418        C  0.63196857  0.90917557  0.30991077     1.10220
O419        O  0.65241963  0.95852950  0.39450069    -0.79370
O420        O  0.71222502  0.83947418  0.46231181    -0.79450
O421        O  0.75577942  0.91339068  0.37118797    -0.79380
O422        O  0.61494607  0.87493270  0.42876304    -0.79360
O423        O  0.66461156  0.89090348  0.45112453    -0.79420
O424        O  0.71936483  0.94858992  0.39389086    -0.79380
O425        O  0.60705311  0.92864720  0.37837103    -0.79340
O426        O  0.73710718  0.88281561  0.43228120    -0.79410
Co427      Co  0.68354317  0.93846140  0.35971985     1.51530
Co428      Co  0.69101115  0.85882952  0.42142484     1.51690
Co429      Co  0.72510286  0.87242560  0.38020985     1.51570
Co430      Co  0.62481810  0.87828052  0.37665242     1.51470
O431        O  0.67634455  0.88955155  0.38068456    -1.41310
C432        C  0.62067488  0.95723719  0.38864122     1.10250
C433        C  0.73474645  0.86364372  0.46039153     1.10340
C434        C  0.74958582  0.94190294  0.38561459     1.10270
C435        C  0.63287770  0.88453389  0.45483655     1.10250
O436        O  0.02960011  0.83840272  0.32418473    -0.79370
O437        O  0.09760783  0.94388348  0.42084497    -0.79390
O438        O  0.98539180  0.92323881  0.37537525    -0.79400
O439        O  0.11393303  0.88409498  0.32156460    -0.79340
O440        O  0.03495437  0.94499061  0.39431663    -0.79470
O441        O  0.09963709  0.82789196  0.32582406    -0.79390
O442        O  0.11000780  0.93917897  0.36592218    -0.79370
O443        O  0.02917182  0.89630530  0.32736021    -0.79410
C444        C  0.02112598  0.86858548  0.31144651     1.10320
C445        C  0.10783334  0.95794880  0.39252151     1.10200
C446        C  0.00379825  0.94941042  0.38375782     1.10340
C447        C  0.11188839  0.85387153  0.30861299     1.10220
O448        O  0.09690796  0.80974732  0.39876647    -0.79370
O449        O  0.04386830  0.92559301  0.46147543    -0.79450
O450        O  0.99131070  0.85152112  0.37525333    -0.79380
O451        O  0.13620226  0.89293733  0.42348236    -0.79360
O452        O  0.08971067  0.87376872  0.45048453    -0.79420
O453        O  0.02720301  0.81396867  0.39751012    -0.79380
O454        O  0.14084262  0.83942083  0.37656553    -0.79340
O455        O  0.01151396  0.88834940  0.43118133    -0.79410
Co456      Co  0.06376856  0.82527279  0.36330054     1.51530
Co457      Co  0.06175174  0.90535079  0.42117295     1.51690
Co458      Co  0.02390183  0.89343219  0.37828039     1.51570
Co459      Co  0.12199927  0.88862176  0.37205098     1.51470
O460        O  0.07165062  0.87487724  0.38080286    -1.41310
C461        C  0.12847173  0.81190419  0.39137198     1.10250
C462        C  0.01719505  0.90668012  0.45872488     1.10340
C463        C  0.99696884  0.82136543  0.38869446     1.10270
C464        C  0.12100479  0.88280753  0.45163463     1.10250
O465        O  0.79638623  0.04446554  0.34864639    -0.79370
O466        O  0.91282621  0.12582054  0.44117242    -0.79390
O467        O  0.88402958  0.01081831  0.42255592    -0.79400
O468        O  0.82083691  0.14289833  0.37192944    -0.79340
O469        O  0.89255206  0.05601107  0.45628468    -0.79470
O470        O  0.81041967  0.09323311  0.39686019    -0.79390
O471        O  0.86214696  0.14552935  0.43034248    -0.79370
O472        O  0.82302010  0.02725942  0.39654097    -0.79410
C473        C  0.79665817  0.02599453  0.37640323     1.10320
C474        C  0.88421490  0.13523135  0.45232471     1.10200
C475        C  0.88383769  0.02421560  0.45270270     1.10340
C476        C  0.79953437  0.12217340  0.38597746     1.10220
O477        O  0.83370629  0.10134810  0.32266452    -0.79370
O478        O  0.94184668  0.03496554  0.40577356    -0.79450
O479        O  0.86520077  0.98911789  0.35770819    -0.79380
O480        O  0.92199552  0.15370553  0.38238818    -0.79360
O481        O  0.95070909  0.10364177  0.38463786    -0.79420
O482        O  0.86020508  0.03589282  0.32385149    -0.79380
O483        O  0.87936149  0.13576001  0.32763028    -0.79340
O484        O  0.91827151  0.03498885  0.35547764    -0.79410
Co485      Co  0.83806530  0.06684992  0.36228653     1.51530
Co486      Co  0.92131902  0.08032823  0.42005607     1.51690
Co487      Co  0.87172727  0.03463744  0.37691966     1.51570
Co488      Co  0.87187139  0.14058179  0.37871920     1.51470
O489        O  0.87983583  0.08611895  0.38657372    -1.41310
C490        C  0.85796526  0.11930664  0.30886445     1.10250
C491        C  0.94115183  0.02379540  0.37522283     1.10340
C492        C  0.86363068  0.00219258  0.32728563     1.10270
C493        C  0.94972098  0.13657466  0.37937024     1.10250
O494        O  0.84550119  0.81761591  0.53510985    -0.79370
O495        O  0.94644312  0.88019228  0.60299982    -0.79390
O496        O  0.90525929  0.92139093  0.50284073    -0.79400
O497        O  0.87690156  0.83534992  0.63425786    -0.79340
O498        O  0.94141392  0.89485390  0.53698887    -0.79470
O499        O  0.89675184  0.82892125  0.58124976    -0.79390
O500        O  0.92212529  0.89125353  0.65208065    -0.79370
O501        O  0.87812878  0.85939665  0.51087429    -0.79410
C502        C  0.86577303  0.82791715  0.51134892     1.10320
C503        C  0.94908640  0.88327096  0.63507841     1.10200
C504        C  0.93394315  0.90710735  0.50748071     1.10340
C505        C  0.88921159  0.81561663  0.61055712     1.10220
O506        O  0.82596882  0.84000605  0.59527155    -0.79370
O507        O  0.91401920  0.96496552  0.55098418    -0.79450
O508        O  0.83792351  0.91395342  0.49307555    -0.79380
O509        O  0.86692276  0.94048376  0.63695462    -0.79360
O510        O  0.92067025  0.95110729  0.62053647    -0.79420
O511        O  0.81675315  0.88171345  0.53704274    -0.79380
O512        O  0.82144506  0.88811530  0.62425248    -0.79340
O513        O  0.85797935  0.95714945  0.54510108    -0.79410
Co514      Co  0.85971689  0.85680248  0.56033207     1.51530
Co515      Co  0.92866410  0.92117922  0.57820868     1.51690
Co516      Co  0.86522740  0.90773064  0.53274114     1.51570
Co517      Co  0.87207312  0.88937740  0.63383714     1.51470
O518        O  0.88239887  0.89809083  0.58118131    -1.41310
C519        C  0.80772322  0.86106795  0.61163613     1.10250
C520        C  0.88467245  0.97627852  0.54114294     1.10340
C521        C  0.81288479  0.89784308  0.50714785     1.10270
C522        C  0.89230159  0.96104729  0.63374525     1.10250
O523        O  0.08727337  0.06664488  0.47449849    -0.79370
O524        O  0.15279702  0.21101429  0.44319404    -0.79390
O525        O  0.18737501  0.10166097  0.48910526    -0.79400
O526        O  0.06071923  0.15385096  0.48812037    -0.79340
O527        O  0.17602462  0.15730910  0.47492847    -0.79470
O528        O  0.03732886  0.11253004  0.45645277    -0.79390
O529        O  0.11242403  0.20041703  0.48155241    -0.79370
O530        O  0.11947195  0.10329232  0.50427948    -0.79410
C531        C  0.10209858  0.07503111  0.50298457     1.10320
C532        C  0.13788452  0.21862538  0.47133662     1.10200
C533        C  0.19187243  0.13438038  0.49368979     1.10340
C534        C  0.03935134  0.12926525  0.48466293     1.10220
O535        O  0.06535494  0.12070886  0.38698050    -0.79370
O536        O  0.19833633  0.16913740  0.40930734    -0.79450
O537        O  0.14575354  0.06175161  0.44949470    -0.79380
O538        O  0.09679754  0.21055762  0.40832527    -0.79360
O539        O  0.13346878  0.17692322  0.38060537    -0.79420
O540        O  0.11440683  0.07074857  0.40338555    -0.79380
O541        O  0.04212542  0.16483701  0.41514042    -0.79340
O542        O  0.18127562  0.11423434  0.42022218    -0.79410
Co543      Co  0.07812962  0.09522595  0.42981639     1.51530
Co544      Co  0.15316001  0.16142457  0.42587508     1.51690
Co545      Co  0.14832313  0.11250780  0.46268734     1.51570
Co546      Co  0.07957121  0.17985912  0.44825251     1.51470
O547        O  0.10934836  0.13740677  0.43979758    -1.41310
C548        C  0.04217542  0.14348995  0.38977554     1.10250
C549        C  0.20494917  0.13645859  0.41151428     1.10340
C550        C  0.13255100  0.05024664  0.42181938     1.10270
C551        C  0.11696928  0.20563284  0.38260825     1.10250
O552        O  0.64545950  0.04636688  0.31344223    -0.79370
O553        O  0.59920237  0.18388594  0.27964251    -0.79390
O554        O  0.56194452  0.11896763  0.27150859    -0.79400
O555        O  0.68824369  0.14789542  0.28293235    -0.79340
O556        O  0.54496628  0.16031227  0.30589563    -0.79470
O557        O  0.68713000  0.09290361  0.29776647    -0.79390
O558        O  0.64904015  0.20283626  0.29257805    -0.79370
O559        O  0.60891602  0.06824877  0.27523832    -0.79410
C560        C  0.62982328  0.04475614  0.28428380     1.10320
C561        C  0.62379064  0.20359778  0.27260113     1.10200
C562        C  0.54053593  0.14246676  0.27834932     1.10340
C563        C  0.69798914  0.11699261  0.27799561     1.10220
O564        O  0.69082094  0.07484677  0.36404898    -0.79370
O565        O  0.57950779  0.14289024  0.37278763    -0.79450
O566        O  0.59029597  0.05169636  0.34554261    -0.79380
O567        O  0.63829795  0.18889603  0.36600972    -0.79360
O568        O  0.58736264  0.20867966  0.34666406    -0.79420
O569        O  0.62387666  0.08262379  0.37800297    -0.79380
O570        O  0.69341268  0.13366493  0.35808583    -0.79340
O571        O  0.54583530  0.10697304  0.34497670    -0.79410
Co572      Co  0.65425751  0.09261717  0.33768064     1.51530
Co573      Co  0.59312282  0.16365808  0.32701005     1.51690
Co574      Co  0.57948079  0.08898096  0.30941061     1.51570
Co575      Co  0.66143739  0.16300689  0.32442341     1.51470
O576        O  0.62050585  0.12362348  0.31450694    -1.41310
C577        C  0.70539326  0.10404048  0.37046809     1.10250
C578        C  0.55155863  0.12593543  0.37132988     1.10340
C579        C  0.60704204  0.05459397  0.37355367     1.10270
C580        C  0.61299306  0.21119049  0.36730453     1.10250
O581        O  0.11004084  0.75951371  0.09180579    -0.79370
O582        O  0.13242974  0.76625798  0.17970860    -0.79390
O583        O  0.18064240  0.77969665  0.12488809    -0.79400
O584        O  0.03775724  0.80339377  0.17165197    -0.79340
O585        O  0.19784248  0.79344511  0.17744919    -0.79470
O586        O  0.05818015  0.76325516  0.13724203    -0.79390
O587        O  0.09551101  0.79677359  0.21116821    -0.79370
O588        O  0.14723231  0.79381738  0.06570714    -0.79410
C589        C  0.13311939  0.76381506  0.06925057     1.10320
C590        C  0.11317832  0.76891144  0.20599531     1.10200
C591        C  0.20192595  0.77567012  0.15045003     1.10340
C592        C  0.03629077  0.77269833  0.15944401     1.10220
O593        O  0.03795404  0.83116200  0.10904350    -0.79370
O594        O  0.18081133  0.85446233  0.14549029    -0.79450
O595        O  0.12902304  0.86427397  0.08679452    -0.79380
O596        O  0.11540126  0.86964729  0.18827169    -0.79360
O597        O  0.15075779  0.83118764  0.20786319    -0.79420
O598        O  0.09191307  0.82893023  0.06136641    -0.79380
O599        O  0.06038565  0.87040388  0.14437870    -0.79340
O600        O  0.19516451  0.84083450  0.09169724    -0.79410
Co601      Co  0.07662981  0.79651003  0.10164898     1.51530
Co602      Co  0.15428383  0.80900943  0.16144466     1.51690
Co603      Co  0.15229630  0.82404816  0.10854198     1.51570
Co604      Co  0.07947837  0.83494510  0.17665833     1.51470
O605        O  0.10913820  0.81681732  0.13706306    -1.41310
C606        C  0.03629208  0.86046670  0.12475062     1.10250
C607        C  0.20239034  0.85628227  0.11986729     1.10340
C608        C  0.11060261  0.85682128  0.06085101     1.10270
C609        C  0.13412742  0.85888320  0.21263018     1.10250
O610        O  0.06856332  0.60889311  0.29405877    -0.79370
O611        O  0.19828899  0.67602298  0.30712671    -0.79390
O612        O  0.09091528  0.71288329  0.31661758    -0.79400
O613        O  0.13531886  0.57952233  0.27347150    -0.79340
O614        O  0.13798538  0.69978347  0.29126381    -0.79470
O615        O  0.10152062  0.55569295  0.31326399    -0.79390
O616        O  0.18119144  0.63562665  0.27053864    -0.79370
O617        O  0.04892460  0.65835004  0.31107831    -0.79410
C618        C  0.04855154  0.63370845  0.28947734     1.10320
C619        C  0.20115144  0.66106073  0.27798766     1.10200
C620        C  0.11105785  0.71745398  0.29177132     1.10340
C621        C  0.11558288  0.55487657  0.28352126     1.10220
O622        O  0.12104886  0.58678177  0.37825891    -0.79370
O623        O  0.16380287  0.71906478  0.35539551    -0.79450
O624        O  0.07182532  0.63184605  0.38044357    -0.79380
O625        O  0.20263475  0.61701708  0.33900377    -0.79360
O626        O  0.17675802  0.65204597  0.37508418    -0.79420
O627        O  0.05183761  0.58292370  0.35880833    -0.79380
O628        O  0.15797306  0.56173783  0.34337512    -0.79340
O629        O  0.12023400  0.69077295  0.38181671    -0.79410
Co630      Co  0.09346168  0.60102665  0.33735644     1.51530
Co631      Co  0.15413589  0.67558235  0.33435068     1.51690
Co632      Co  0.08742393  0.66939584  0.34530314     1.51570
Co633      Co  0.16630371  0.60094837  0.30723004     1.51470
O634        O  0.12754973  0.63501330  0.32083064    -1.41310
C635        C  0.14215774  0.56248569  0.37242474     1.10250
C636        C  0.14042289  0.71803174  0.37874667     1.10340
C637        C  0.04651967  0.61046397  0.37633867     1.10270
C638        C  0.20240767  0.63361581  0.36723069     1.10250
O639        O  0.79747143  0.15803354  0.05783768    -0.79370
O640        O  0.78452546  0.10461633  0.20590912    -0.79390
O641        O  0.76109712  0.06733536  0.12685625    -0.79400
O642        O  0.78623217  0.20857951  0.16931675    -0.79340
O643        O  0.79591110  0.04599574  0.16634924    -0.79470
O644        O  0.77768971  0.19072481  0.11557682    -0.79390
O645        O  0.75870912  0.14244042  0.17036411    -0.79370
O646        O  0.76208551  0.11854730  0.07871885    -0.79410
C647        C  0.76929347  0.14138902  0.05571746     1.10320
C648        C  0.75838015  0.12347911  0.19774113     1.10200
C649        C  0.76706471  0.04568568  0.15125606     1.10340
C650        C  0.77065407  0.21158728  0.14077718     1.10220
O651        O  0.83992279  0.20684193  0.08781792    -0.79370
O652        O  0.86390239  0.07020743  0.14900568    -0.79450
O653        O  0.83218649  0.10054917  0.05800786    -0.79380
O654        O  0.81899528  0.16260659  0.20476857    -0.79360
O655        O  0.85779951  0.12416480  0.19436045    -0.79420
O656        O  0.86381045  0.13991615  0.08489614    -0.79380
O657        O  0.84732344  0.19265684  0.14362716    -0.79340
O658        O  0.83108647  0.04685740  0.10820386    -0.79410
Co659      Co  0.82257155  0.16289783  0.10367424     1.51530
Co660      Co  0.82536661  0.08866105  0.17602663     1.51690
Co661      Co  0.79730089  0.08540215  0.09525408     1.51570
Co662      Co  0.80235654  0.16460149  0.15571615     1.51470
O663        O  0.81307904  0.11894703  0.13276547    -1.41310
C664        C  0.85239589  0.21405259  0.11736173     1.10250
C665        C  0.85809915  0.04640996  0.12719079     1.10340
C666        C  0.85847294  0.12089613  0.05861701     1.10270
C667        C  0.84528320  0.14640896  0.21452152     1.10250
O668        O  0.78194387  0.57473989  0.61452215    -0.79370
O669        O  0.79600038  0.71375027  0.67444821    -0.79390
O670        O  0.76196617  0.62115864  0.67194947    -0.79400
O671        O  0.76846853  0.64448843  0.58473267    -0.79340
O672        O  0.78966612  0.65255290  0.71076992    -0.79470
O673        O  0.80637790  0.61089265  0.56110453    -0.79390
O674        O  0.76280386  0.69215642  0.63420059    -0.79370
O675        O  0.78274690  0.55326112  0.66804782    -0.79410
C676        C  0.76953936  0.55342278  0.63790188     1.10320
C677        C  0.76753708  0.71341950  0.65841978     1.10200
C678        C  0.76193792  0.63898935  0.69931241     1.10340
C679        C  0.77719203  0.62456459  0.56043704     1.10220
O680        O  0.87032806  0.62751313  0.58902035    -0.79370
O681        O  0.86244426  0.63801891  0.69839246    -0.79450
O682        O  0.84848776  0.56864247  0.64601767    -0.79380
O683        O  0.83137374  0.72070007  0.61765172    -0.79360
O684        O  0.86606531  0.69897612  0.65820758    -0.79420
O685        O  0.84480676  0.55916795  0.58923030    -0.79380
O686        O  0.83741307  0.67018395  0.56778466    -0.79340
O687        O  0.82379381  0.59675984  0.70657939    -0.79410
Co688      Co  0.82872692  0.60255190  0.60687683     1.51530
Co689      Co  0.82881411  0.67324841  0.68241724     1.51690
Co690      Co  0.80441076  0.59771227  0.65788922     1.51570
Co691      Co  0.80078323  0.67971993  0.60310043     1.51470
O692        O  0.81907019  0.64456899  0.63791152    -1.41310
C693        C  0.86351862  0.65014632  0.56516744     1.10250
C694        C  0.85095671  0.61244736  0.71627150     1.10340
C695        C  0.85550072  0.54973975  0.61910168     1.10270
C696        C  0.85776752  0.72357346  0.63731330     1.10250
O697        O  0.14513950  0.05485215  0.80222861    -0.79370
O698        O  0.12443750  0.18885888  0.77694429    -0.79390
O699        O  0.04662899  0.08781956  0.79362002    -0.79400
O700        O  0.16875866  0.14269929  0.78047496    -0.79340
O701        O  0.06790841  0.13767544  0.77127362    -0.79470
O702        O  0.19741590  0.10234972  0.80793897    -0.79390
O703        O  0.17168209  0.20871957  0.80348146    -0.79370
O704        O  0.11408062  0.09408584  0.77605684    -0.79410
C705        C  0.12986543  0.06568955  0.77526032     1.10320
C706        C  0.14804604  0.21283506  0.78081861     1.10200
C707        C  0.04811664  0.11025648  0.76904749     1.10340
C708        C  0.19409637  0.12265532  0.78166927     1.10220
O709        O  0.17975557  0.11060706  0.88096574    -0.79370
O710        O  0.04842501  0.15891090  0.84199362    -0.79450
O711        O  0.08959640  0.05166963  0.83530337    -0.79380
O712        O  0.14550419  0.19282729  0.86716433    -0.79360
O713        O  0.09790758  0.20693404  0.84230781    -0.79420
O714        O  0.12898959  0.06040058  0.87468227    -0.79380
O715        O  0.19952463  0.15438351  0.84855601    -0.79340
O716        O  0.05685769  0.10606942  0.86089838    -0.79410
Co717      Co  0.15995592  0.08551922  0.84152906     1.51530
Co718      Co  0.08957430  0.16677253  0.81142036     1.51690
Co719      Co  0.08578642  0.10175832  0.81860610     1.51570
Co720      Co  0.15482912  0.16614651  0.82426288     1.51470
O721        O  0.12411295  0.12729060  0.83787097    -1.41310
C722        C  0.20347150  0.13207662  0.87353439     1.10250
C723        C  0.03989680  0.13384685  0.86207867     1.10340
C724        C  0.10648731  0.04064030  0.86136840     1.10270
C725        C  0.12184633  0.21461492  0.86272782     1.10250
O726        O  0.60080133  0.31049254  0.06656882    -0.79370
O727        O  0.65601966  0.31059187  0.21469205    -0.79390
O728        O  0.68487136  0.27634930  0.13924581    -0.79400
O729        O  0.55429337  0.29788250  0.17999441    -0.79340
O730        O  0.71047481  0.31526507  0.17174283    -0.79470
O731        O  0.57043284  0.29378271  0.12497221    -0.79390
O732        O  0.62123732  0.27632391  0.18441162    -0.79370
O733        O  0.63711103  0.27376099  0.08984617    -0.79410
C734        C  0.61617087  0.28107536  0.06588945     1.10320
C735        C  0.64114480  0.28104286  0.21013747     1.10200
C736        C  0.70932202  0.28502858  0.15847323     1.10340
C737        C  0.55110598  0.28374589  0.15047940     1.10220
O738        O  0.55287821  0.35760350  0.09747584    -0.79370
O739        O  0.69038093  0.38379957  0.14806653    -0.79450
O740        O  0.65851229  0.34316945  0.06514827    -0.79380
O741        O  0.59975494  0.34183001  0.21122108    -0.79360
O742        O  0.63641501  0.38251801  0.19468852    -0.79420
O743        O  0.62084678  0.37984129  0.08799777    -0.79380
O744        O  0.56990939  0.36300892  0.15227297    -0.79340
O745        O  0.70987602  0.34375893  0.11179453    -0.79410
Co746      Co  0.59712445  0.33934476  0.11065752     1.51530
Co747      Co  0.67075998  0.34788090  0.17957638     1.51690
Co748      Co  0.67074121  0.30980031  0.10376802     1.51570
Co749      Co  0.59719452  0.31782961  0.16545016     1.51470
O750        O  0.63977022  0.33073533  0.13955862    -1.41310
C751        C  0.54872799  0.37072010  0.12755309     1.10250
C752        C  0.71216150  0.37373323  0.12602534     1.10340
C753        C  0.64134337  0.37154970  0.06371280     1.10270
C754        C  0.61335522  0.37173156  0.21539884     1.10250
O755        O  0.09593694  0.27120682  0.63864609    -0.79370
O756        O  0.15681627  0.26842089  0.62098534    -0.79390
O757        O  0.11325894  0.30767907  0.55409644    -0.79400
O758        O  0.14106670  0.30067903  0.70782988    -0.79340
O759        O  0.16747343  0.28860406  0.55390314    -0.79470
O760        O  0.08496625  0.28729381  0.70520299    -0.79390
O761        O  0.19129412  0.29229936  0.65885444    -0.79370
O762        O  0.06217814  0.29900361  0.60249711    -0.79410
C763        C  0.06974658  0.27136346  0.61959682     1.10320
C764        C  0.18167234  0.26574238  0.64175028     1.10200
C765        C  0.13759348  0.28925195  0.54046267     1.10340
C766        C  0.11417817  0.28350887  0.71930070     1.10220
O767        O  0.09623293  0.35474622  0.69767979    -0.79370
O768        O  0.16169895  0.35673557  0.56492315    -0.79450
O769        O  0.06508415  0.37292594  0.61997539    -0.79380
O770        O  0.19506221  0.36707038  0.64311498    -0.79360
O771        O  0.20423288  0.32551384  0.60485119    -0.79420
O772        O  0.05295504  0.32988069  0.65676059    -0.79380
O773        O  0.14698198  0.37826921  0.69624053    -0.79340
O774        O  0.11309628  0.38372126  0.57009039    -0.79410
Co775      Co  0.10046220  0.31347138  0.66671289     1.51530
Co776      Co  0.15523896  0.31335610  0.59446017     1.51690
Co777      Co  0.09169620  0.34127760  0.59047772     1.51570
Co778      Co  0.16541338  0.33577531  0.67259215     1.51470
O779        O  0.12884014  0.33703960  0.63118814    -1.41310
C780        C  0.11687775  0.37747649  0.70844043     1.10250
C781        C  0.14228042  0.38172134  0.55662760     1.10340
C782        C  0.04527345  0.35904906  0.64226447     1.10270
C783        C  0.21431116  0.35259082  0.62097777     1.10250
O784        O  0.12227999  0.48247348  0.07461376    -0.79370
O785        O  0.09067373  0.48498495  0.20438064    -0.79390
O786        O  0.04325617  0.46357353  0.10865350    -0.79400
O787        O  0.17234641  0.48904364  0.11967959    -0.79340
O788        O  0.08264902  0.49504230  0.13526877    -0.79470
O789        O  0.18930130  0.46406488  0.07118560    -0.79390
O790        O  0.14671282  0.47900606  0.19013747    -0.79370
O791        O  0.08321269  0.44883990  0.05195853    -0.79410
C792        C  0.10002103  0.47726643  0.05148935     1.10320
C793        C  0.12227807  0.49244181  0.20895023     1.10200
C794        C  0.05363004  0.49287312  0.12077411     1.10340
C795        C  0.19258716  0.48882388  0.09256138     1.10220
O796        O  0.18658837  0.40952515  0.11623140    -0.79370
O797        O  0.04689498  0.43746083  0.16979039    -0.79450
O798        O  0.09751343  0.38040716  0.07847934    -0.79380
O799        O  0.15389080  0.40299044  0.18294972    -0.79360
O800        O  0.10421559  0.41838917  0.20285862    -0.79420
O801        O  0.14108039  0.41130073  0.05648468    -0.79380
O802        O  0.20534535  0.44356234  0.15916969    -0.79340
O803        O  0.05558434  0.39252089  0.13572317    -0.79410
Co804      Co  0.15088093  0.44439909  0.09578469     1.51530
Co805      Co  0.09538393  0.45601533  0.16675506     1.51690
Co806      Co  0.07194597  0.42113262  0.09560594     1.51570
Co807      Co  0.15814468  0.44436886  0.14965082     1.51470
O808        O  0.11250970  0.43148161  0.12739981    -1.41310
C809        C  0.21102730  0.41965635  0.13692107     1.10250
C810        C  0.03690280  0.40832363  0.15715452     1.10340
C811        C  0.11926730  0.38614330  0.05440180     1.10270
C812        C  0.13132370  0.40099269  0.20667064     1.10250
O813        O  0.44929142  0.33564860  0.23495248    -0.79370
O814        O  0.32332695  0.38879232  0.25700421    -0.79390
O815        O  0.41531327  0.45474562  0.22344044    -0.79400
O816        O  0.34495842  0.31190974  0.21909651    -0.79340
O817        O  0.37960685  0.42967768  0.25999682    -0.79470
O818        O  0.38160802  0.33749836  0.25488433    -0.79390
O819        O  0.29541172  0.36142713  0.21581353    -0.79370
O820        O  0.44116625  0.39330223  0.23606097    -0.79410
C821        C  0.45582397  0.36534018  0.24811735     1.10320
C822        C  0.29697014  0.37314602  0.24640440     1.10200
C823        C  0.40034450  0.45419561  0.25295136     1.10340
C824        C  0.35997793  0.31322113  0.24874987     1.10220
O825        O  0.40129088  0.31149287  0.18822006    -0.79370
O826        O  0.35914638  0.46423284  0.19506973    -0.79450
O827        O  0.45867011  0.42272567  0.17294734    -0.79380
O828        O  0.31919277  0.38727917  0.15022814    -0.79360
O829        O  0.30382197  0.42342252  0.19240090    -0.79420
O830        O  0.43906412  0.36764318  0.17080793    -0.79380
O831        O  0.36780768  0.33507425  0.14874063    -0.79340
O832        O  0.39095276  0.43973298  0.15438527    -0.79410
Co833      Co  0.40879639  0.35567752  0.21480395     1.51530
Co834      Co  0.34312791  0.42419043  0.22584255     1.51690
Co835      Co  0.41426567  0.41215134  0.19233058     1.51570
Co836      Co  0.33456726  0.35109638  0.18366541     1.51470
O837        O  0.36964968  0.38660709  0.20232309    -1.41310
C838        C  0.38795673  0.31106171  0.15813903     1.10250
C839        C  0.37264639  0.46522960  0.16477890     1.10340
C840        C  0.46072638  0.39176178  0.16083669     1.10270
C841        C  0.30093733  0.41204517  0.16152425     1.10250
O842        O  0.68796130  0.61270389  0.48590801    -0.79370
O843        O  0.54913668  0.66343465  0.45826626    -0.79390
O844        O  0.63906844  0.66869854  0.50254334    -0.79400
O845        O  0.61874478  0.57671117  0.49773162    -0.79340
O846        O  0.60515198  0.70383088  0.47143851    -0.79470
O847        O  0.65656023  0.55542178  0.46199158    -0.79390
O848        O  0.56816852  0.62443013  0.49599424    -0.79370
O849        O  0.70559461  0.66795006  0.48131201    -0.79410
C850        C  0.70628250  0.63862621  0.49682640     1.10320
C851        C  0.54632240  0.64687078  0.48711484     1.10200
C852        C  0.62057477  0.69587684  0.49976653     1.10340
C853        C  0.64014092  0.55314529  0.49047059     1.10220
O854        O  0.64404306  0.58379414  0.39470008    -0.79370
O855        O  0.62932308  0.69369295  0.40011088    -0.79450
O856        O  0.69391852  0.64415392  0.41641172    -0.79380
O857        O  0.55047689  0.60618264  0.42376956    -0.79360
O858        O  0.57581860  0.64749331  0.39087533    -0.79420
O859        O  0.70937937  0.58856313  0.42293395    -0.79380
O860        O  0.60216746  0.55910894  0.42616500    -0.79340
O861        O  0.66411764  0.70255888  0.44318333    -0.79410
Co862      Co  0.66429595  0.60234429  0.43796547     1.51530
Co863      Co  0.59218776  0.67423644  0.43037306     1.51690
Co864      Co  0.66410589  0.65395829  0.46064033     1.51570
Co865      Co  0.58695405  0.59386639  0.46074092     1.51470
O866        O  0.62080535  0.63111952  0.44513078    -1.41310
C867        C  0.62143734  0.55987780  0.39928864     1.10250
C868        C  0.65158978  0.71251829  0.41478170     1.10340
C869        C  0.71562672  0.61926044  0.41065406     1.10270
C870        C  0.55333166  0.62366584  0.39498019     1.10250
O871        O  0.56583492  0.29604467  0.36176881    -0.79370
O872        O  0.52351052  0.43713599  0.39315409    -0.79390
O873        O  0.51585589  0.37078340  0.43581604    -0.79400
O874        O  0.51834238  0.37588506  0.34037159    -0.79340
O875        O  0.54358403  0.41435110  0.45761316    -0.79470
O876        O  0.55814057  0.34536346  0.31349553    -0.79390
O877        O  0.52829208  0.44680024  0.33614457    -0.79370
O878        O  0.52557825  0.31754229  0.39531091    -0.79410
C879        C  0.53598724  0.29451359  0.37487267     1.10320
C880        C  0.51422531  0.45365284  0.36489280     1.10200
C881        C  0.51716527  0.39471945  0.45768685     1.10340
C882        C  0.52716262  0.35553934  0.31609439     1.10220
O883        O  0.62283503  0.37936577  0.33423617    -0.79370
O884        O  0.61364944  0.40534406  0.43700000    -0.79450
O885        O  0.59204896  0.30279622  0.42318661    -0.79380
O886        O  0.58975628  0.44844570  0.36775196    -0.79360
O887        O  0.57895658  0.46703387  0.42102752    -0.79420
O888        O  0.62861177  0.32759061  0.38671084    -0.79380
O889        O  0.57903760  0.40702591  0.31228133    -0.79340
O890        O  0.58591081  0.36236960  0.46504128    -0.79410
Co891      Co  0.59384320  0.33970897  0.35147531     1.51530
Co892      Co  0.57114370  0.41887074  0.41211151     1.51690
Co893      Co  0.55564756  0.34043134  0.42789591     1.51570
Co894      Co  0.55307264  0.40973838  0.35694518     1.51470
O895        O  0.57157415  0.37170468  0.38802992    -1.41310
C896        C  0.60932675  0.39582460  0.30895761     1.10250
C897        C  0.60955358  0.38600699  0.46407987     1.10340
C898        C  0.61952533  0.30126483  0.40512935     1.10270
C899        C  0.58787239  0.47372083  0.38968779     1.10250
O900        O  0.26523793  0.08010296  0.60842547    -0.79370
O901        O  0.25851993  0.18125929  0.64363892    -0.79390
O902        O  0.26254156  0.13077061  0.69002114    -0.79400
O903        O  0.27196827  0.16534738  0.56600392    -0.79340
O904        O  0.28118986  0.18076732  0.71028084    -0.79470
O905        O  0.29224308  0.11481817  0.55129952    -0.79390
O906        O  0.28945844  0.21592255  0.61193976    -0.79370
O907        O  0.28005820  0.06958128  0.66340827    -0.79410
C908        C  0.26012705  0.06454408  0.63735595     1.10320
C909        C  0.26201444  0.21030031  0.62828074     1.10200
C910        C  0.25951154  0.15557576  0.71217254     1.10340
C911        C  0.26806832  0.13588098  0.55201699     1.10220
O912        O  0.35812772  0.10071934  0.57298049    -0.79370
O913        O  0.34236571  0.14857289  0.69802625    -0.79450
O914        O  0.35410486  0.09030785  0.66257430    -0.79380
O915        O  0.35876489  0.19182653  0.61160883    -0.79360
O916        O  0.33147212  0.20733013  0.65953344    -0.79420
O917        O  0.33112444  0.05725976  0.62379340    -0.79380
O918        O  0.34510249  0.15383837  0.55322726    -0.79340
O919        O  0.31756435  0.10168733  0.72122129    -0.79410
Co920      Co  0.31157922  0.09171680  0.59202710     1.51530
Co921      Co  0.30105148  0.16338361  0.66733582     1.51690
Co922      Co  0.30939443  0.11309151  0.67236024     1.51570
Co923      Co  0.31623317  0.17831210  0.58850299     1.51470
O924        O  0.31190783  0.13602891  0.62338179    -1.41310
C925        C  0.36214467  0.12565877  0.55111427     1.10250
C926        C  0.33924799  0.12682712  0.72402782     1.10340
C927        C  0.35095290  0.06076990  0.64903236     1.10270
C928        C  0.35695016  0.21060555  0.63827122     1.10250
O929        O  0.29767605  0.67260729  0.03723174    -0.79370
O930        O  0.24927299  0.64485937  0.16862318    -0.79390
O931        O  0.28279751  0.56170880  0.09575750    -0.79400
O932        O  0.29194378  0.71284452  0.14047521    -0.79340
O933        O  0.24893273  0.59631769  0.12276891    -0.79470
O934        O  0.26604399  0.68154713  0.09990709    -0.79390
O935        O  0.28501314  0.67317297  0.20081559    -0.79370
O936        O  0.27870186  0.62183383  0.05875475    -0.79410
C937        C  0.27724786  0.64671148  0.03564900     1.10320
C938        C  0.25462480  0.66268797  0.19493601     1.10200
C939        C  0.25293543  0.56814673  0.10722751     1.10340
C940        C  0.26623515  0.70688357  0.12082254     1.10220
O941        O  0.33448806  0.70396641  0.08778506    -0.79370
O942        O  0.30893681  0.56192138  0.15682976    -0.79450
O943        O  0.33541744  0.58302825  0.04928279    -0.79380
O944        O  0.35249967  0.64589281  0.19097241    -0.79360
O945        O  0.30828985  0.61143920  0.20598837    -0.79420
O946        O  0.35356608  0.63656567  0.06208077    -0.79380
O947        O  0.36338278  0.69191728  0.13516760    -0.79340
O948        O  0.35084591  0.57631655  0.11969947    -0.79410
Co949      Co  0.30858159  0.65862112  0.08389669     1.51530
Co950      Co  0.27995667  0.60540510  0.16164859     1.51690
Co951      Co  0.31711952  0.60252979  0.09088322     1.51570
Co952      Co  0.32312347  0.67788832  0.16405822     1.51470
O953        O  0.31038864  0.63594426  0.13169925    -1.41310
C954        C  0.35831703  0.71147699  0.10880166     1.10250
C955        C  0.33884233  0.55685195  0.14418512     1.10340
C956        C  0.35690204  0.60790260  0.04415590     1.10270
C957        C  0.33853189  0.62362511  0.21149337     1.10250
O958        O  0.45903176  0.09361427  0.05791664    -0.79370
O959        O  0.47741534  0.14917646  0.17677714    -0.79390
O960        O  0.47819577  0.19928028  0.13229666    -0.79400
O961        O  0.44988982  0.05967815  0.16063687    -0.79340
O962        O  0.45200558  0.21489780  0.18121912    -0.79470
O963        O  0.47833610  0.09479885  0.12586655    -0.79390
O964        O  0.45066300  0.11013909  0.20945568    -0.79370
O965        O  0.48097615  0.14308370  0.07994221    -0.79410
C966        C  0.48248990  0.11699627  0.05866070     1.10320
C967        C  0.47706208  0.12882660  0.20299725     1.10200
C968        C  0.47613540  0.21917834  0.15956043     1.10340
C969        C  0.47703076  0.06677522  0.14371410     1.10220
O970        O  0.41469703  0.06067918  0.10596205    -0.79370
O971        O  0.38940271  0.19588531  0.15654418    -0.79450
O972        O  0.41362129  0.16574277  0.05659469    -0.79380
O973        O  0.37767067  0.12266211  0.19695915    -0.79360
O974        O  0.41430427  0.16359213  0.21093768    -0.79420
O975        O  0.39383032  0.11509354  0.07195214    -0.79380
O976        O  0.37776173  0.07303129  0.14698633    -0.79340
O977        O  0.41067722  0.21430763  0.10776270    -0.79410
Co978      Co  0.43617771  0.10785767  0.09891910     1.51530
Co979      Co  0.43349492  0.17277578  0.16415785     1.51690
Co980      Co  0.44272014  0.17458447  0.09944013     1.51570
Co981      Co  0.41394901  0.09460562  0.17547646     1.51470
O982        O  0.41889280  0.13441512  0.13657077    -1.41310
C983        C  0.38838753  0.05243003  0.12418623     1.10250
C984        C  0.39020811  0.21843448  0.13265195     1.10340
C985        C  0.39390540  0.14017849  0.05059123     1.10270
C986        C  0.38885047  0.14421620  0.21856835     1.10250
O987        O  0.30073117  0.21176963  0.35826200    -0.79370
O988        O  0.44061932  0.22295206  0.40843717    -0.79390
O989        O  0.37306227  0.23721567  0.44486361    -0.79400
O990        O  0.39179082  0.24830705  0.35362070    -0.79340
O991        O  0.40844066  0.19836217  0.46554758    -0.79470
O992        O  0.35653410  0.22099934  0.31777614    -0.79390
O993        O  0.45686393  0.22069681  0.35325399    -0.79370
O994        O  0.32189890  0.24416822  0.40012776    -0.79410
C995        C  0.29996035  0.23891696  0.37680030     1.10320
C996        C  0.46097506  0.23247683  0.38346100     1.10200
C997        C  0.39246804  0.22697089  0.46884490     1.10340
C998        C  0.37260214  0.24886124  0.32690738     1.10220
O999        O  0.37326774  0.14541875  0.33143618    -0.79370
O1000       O  0.38947218  0.13351396  0.43531368    -0.79450
O1001       O  0.29802936  0.17431429  0.41516827    -0.79380
O1002       O  0.43897748  0.15563629  0.37550222    -0.79360
O1003       O  0.45697857  0.15729040  0.43018077    -0.79420
O1004       O  0.31948901  0.14063914  0.37448889    -0.79380
O1005       O  0.41039253  0.18637131  0.31905529    -0.79340
O1006       O  0.35048493  0.16565246  0.46223586    -0.79410
Co1007     Co  0.33983216  0.17944709  0.34794162     1.51530
Co1008     Co  0.41291833  0.17668706  0.41803997     1.51690
Co1009     Co  0.33798473  0.20487861  0.42877071     1.51570
Co1010     Co  0.41342893  0.20315376  0.36712148     1.51470
O1011       O  0.36966203  0.18964798  0.39060096    -1.41310
C1012       C  0.39617425  0.15775716  0.31188476     1.10250
C1013       C  0.36816468  0.13767641  0.45997610     1.10340
C1014       C  0.29512169  0.14906450  0.39398874     1.10270
C1015       C  0.46104109  0.14674873  0.39914556     1.10250
O1016       O  0.54379423  0.79884472  0.67406521    -0.79370
O1017       O  0.66174871  0.77129480  0.62906636    -0.79390
O1018       O  0.61868305  0.77692703  0.57412801    -0.79400
O1019       O  0.64294193  0.80113619  0.71117733    -0.79340
O1020       O  0.67316958  0.79025534  0.56222996    -0.79470
O1021       O  0.60935221  0.77518192  0.67454861    -0.79390
O1022       O  0.69516480  0.79819763  0.66542337    -0.79370
O1023       O  0.56689886  0.77703975  0.62589637    -0.79410
C1024       C  0.54409245  0.77583626  0.65035944     1.10320
C1025       C  0.68743829  0.77073623  0.64896946     1.10200
C1026       C  0.64705232  0.77069314  0.55800197     1.10340
C1027       C  0.62659965  0.77398465  0.70198564     1.10220
O1028       O  0.59228184  0.84094787  0.70990061    -0.79370
O1029       O  0.65535617  0.85853788  0.57202197    -0.79450
O1030       O  0.54929630  0.84690947  0.60457682    -0.79380
O1031       O  0.69003597  0.87263097  0.65063139    -0.79360
O1032       O  0.70287060  0.83342631  0.61139831    -0.79420
O1033       O  0.56421535  0.86582360  0.65456624    -0.79380
O1034       O  0.63655197  0.87580422  0.69898140    -0.79340
O1035       O  0.60235805  0.85016629  0.55784139    -0.79410
Co1036     Co  0.58708300  0.82046530  0.66217521     1.51530
Co1037     Co  0.65581216  0.81524790  0.60093781     1.51690
Co1038     Co  0.58993536  0.81594569  0.59638551     1.51570
Co1039     Co  0.66312289  0.83744702  0.67808018     1.51470
O1040       O  0.62715840  0.83600759  0.63644359    -1.41310
C1041       C  0.61076417  0.86749092  0.71753055     1.10250
C1042       C  0.63087837  0.86486695  0.55185948     1.10340
C1043       C  0.54317974  0.86597477  0.63016145     1.10270
C1044       C  0.71107417  0.86024644  0.62901122     1.10250
O1045       O  0.19692714  0.29836896  0.41008037    -0.79370
O1046       O  0.22526517  0.44505030  0.37159263    -0.79390
O1047       O  0.23608823  0.37825098  0.33287782    -0.79400
O1048       O  0.24209647  0.38375930  0.42660419    -0.79340
O1049       O  0.20388908  0.41960947  0.31166789    -0.79470
O1050       O  0.20623626  0.34979570  0.45664428    -0.79390
O1051       O  0.22645546  0.45350422  0.42860092    -0.79370
O1052       O  0.23407356  0.32383377  0.37487342    -0.79410
C1053       C  0.22596956  0.29895623  0.39502628     1.10320
C1054       C  0.23836630  0.46011574  0.39848342     1.10200
C1055       C  0.23025783  0.40070987  0.30947895     1.10340
C1056       C  0.23632989  0.36295855  0.45229595     1.10220
O1057       O  0.13754969  0.37802743  0.43963880    -0.79370
O1058       O  0.13706170  0.40214994  0.33258680    -0.79450
O1059       O  0.16612201  0.30327259  0.35093606    -0.79380
O1060       O  0.16207398  0.44847424  0.40209402    -0.79360
O1061       O  0.16417102  0.46886279  0.34735231    -0.79420
O1062       O  0.13085664  0.32567136  0.38963608    -0.79380
O1063       O  0.18063608  0.40935176  0.45796837    -0.79340
O1064       O  0.16803420  0.36191062  0.30603802    -0.79410
Co1065     Co  0.16784708  0.34062387  0.42150027     1.51530
Co1066     Co  0.17833860  0.42144428  0.35706642     1.51690
Co1067     Co  0.20054029  0.34358126  0.34333843     1.51570
Co1068     Co  0.20304922  0.41389177  0.41110780     1.51470
O1069       O  0.18478452  0.37429585  0.38251260    -1.41310
C1070       C  0.15064719  0.39725837  0.46271116     1.10250
C1071       C  0.14306474  0.38349308  0.30578749     1.10340
C1072       C  0.13802050  0.30178916  0.36819162     1.10270
C1073       C  0.15435808  0.47224632  0.37880013     1.10250
O1074       O  0.55511449  0.63378927  0.79335083    -0.79370
O1075       O  0.70273264  0.66350925  0.80425511    -0.79390
O1076       O  0.61509087  0.68709704  0.77399221    -0.79400
O1077       O  0.61544337  0.59460197  0.76486133    -0.79340
O1078       O  0.65430784  0.71188975  0.80748684    -0.79470
O1079       O  0.58149934  0.57043610  0.80374358    -0.79390
O1080       O  0.67234492  0.63732713  0.76398749    -0.79370
O1081       O  0.54918512  0.69134743  0.79837521    -0.79410
C1082       C  0.54013938  0.66294684  0.78432469     1.10320
C1083       C  0.69893021  0.65406111  0.77301565     1.10200
C1084       C  0.63786187  0.71058034  0.77890837     1.10340
C1085       C  0.59452930  0.57055863  0.77343925     1.10220
O1086       O  0.60901850  0.58225633  0.87048389    -0.79370
O1087       O  0.63660699  0.68999260  0.87839103    -0.79450
O1088       O  0.55998843  0.65604511  0.85984433    -0.79380
O1089       O  0.69703634  0.60117391  0.82577653    -0.79360
O1090       O  0.68641839  0.63533256  0.87097915    -0.79420
O1091       O  0.54050567  0.60131691  0.85521394    -0.79380
O1092       O  0.64095229  0.56068996  0.82797712    -0.79340
O1093       O  0.59999936  0.71236389  0.84120387    -0.79410
Co1094     Co  0.58449075  0.61232462  0.83504585     1.51530
Co1095     Co  0.66688661  0.67253313  0.84056132     1.51690
Co1096     Co  0.58960740  0.66888006  0.81514624     1.51570
Co1097     Co  0.65452659  0.60091393  0.79646687     1.51470
O1098       O  0.62954556  0.63738637  0.82400584    -1.41310
C1099       C  0.62783494  0.55777611  0.85842315     1.10250
C1100       C  0.61785349  0.71538637  0.86856241     1.10340
C1101       C  0.53687894  0.63217428  0.86705895     1.10270
C1102       C  0.70494094  0.61285245  0.85562589     1.10250
O1103       O  0.30885505  0.35536305  0.53996191    -0.79370
O1104       O  0.45234255  0.41057546  0.56711570    -0.79390
O1105       O  0.34640925  0.46000387  0.53240088    -0.79400
O1106       O  0.39099275  0.31813448  0.52584325    -0.79340
O1107       O  0.40052276  0.44439513  0.54197378    -0.79470
O1108       O  0.34822875  0.29906462  0.55879013    -0.79390
O1109       O  0.43816690  0.37099842  0.52884751    -0.79370
O1110       O  0.34409359  0.39132642  0.51086017    -0.79410
C1111       C  0.31755566  0.37157386  0.51156122     1.10320
C1112       C  0.45773333  0.39594385  0.53803971     1.10200
C1113       C  0.37834410  0.46508532  0.52781579     1.10340
C1114       C  0.36822221  0.29555840  0.53291256     1.10220
O1115       O  0.36017271  0.32837202  0.62702562    -0.79370
O1116       O  0.41600617  0.45767564  0.60835647    -0.79450
O1117       O  0.30551016  0.41498686  0.56794289    -0.79380
O1118       O  0.44905282  0.35332454  0.60143383    -0.79360
O1119       O  0.41692738  0.38910179  0.63135072    -0.79420
O1120       O  0.31919751  0.38254499  0.61185068    -0.79380
O1121       O  0.40077858  0.30044064  0.59899287    -0.79340
O1122       O  0.36053938  0.44657572  0.59940269    -0.79410
Co1123     Co  0.33620687  0.34322952  0.58455598     1.51530
Co1124     Co  0.40432439  0.41445918  0.58784913     1.51690
Co1125     Co  0.35550704  0.41648168  0.55418911     1.51570
Co1126     Co  0.41740304  0.33788716  0.56366465     1.51470
O1127       O  0.37835118  0.37217067  0.57181947    -1.41310
C1128       C  0.37988134  0.30251171  0.62472760     1.10250
C1129       C  0.38467764  0.46636640  0.61172009     1.10340
C1130       C  0.29680157  0.40015535  0.59619687     1.10270
C1131       C  0.44430888  0.37162282  0.62834294     1.10250
O1132       O  0.47479560  0.69643231  0.62746350    -0.79370
O1133       O  0.48692474  0.60296596  0.64157126    -0.79390
O1134       O  0.46371457  0.65551236  0.69771398    -0.79400
O1135       O  0.44646736  0.61122439  0.55217346    -0.79340
O1136       O  0.46603384  0.59859468  0.70965776    -0.79470
O1137       O  0.47938826  0.65267076  0.57392490    -0.79390
O1138       O  0.45757009  0.56785308  0.60677301    -0.79370
O1139       O  0.43640798  0.71233811  0.66482104    -0.79410
C1140       C  0.46563087  0.71668706  0.65131017     1.10320
C1141       C  0.48543065  0.57648794  0.62199813     1.10200
C1142       C  0.47622854  0.62929324  0.71574922     1.10340
C1143       C  0.47396332  0.62948820  0.55161179     1.10220
O1144       O  0.40958609  0.66669908  0.55325669    -0.79370
O1145       O  0.40095572  0.61982449  0.70017671    -0.79450
O1146       O  0.37401963  0.67785825  0.64561100    -0.79380
O1147       O  0.38674295  0.57503828  0.62997999    -0.79360
O1148       O  0.42909467  0.56441386  0.66521138    -0.79420
O1149       O  0.40343208  0.71107709  0.60830473    -0.79380
O1150       O  0.37711733  0.62425962  0.57586133    -0.79340
O1151       O  0.39922971  0.67669641  0.71158777    -0.79410
Co1152     Co  0.44150656  0.67945464  0.59287614     1.51530
Co1153     Co  0.44486860  0.61383012  0.66821209     1.51690
Co1154     Co  0.41703488  0.66342633  0.66883578     1.51570
Co1155     Co  0.41658906  0.59715151  0.59350430     1.51470
O1156       O  0.42887213  0.63840538  0.62485080    -1.41310
C1157       C  0.38344911  0.64630099  0.55156142     1.10250
C1158       C  0.39308679  0.64519282  0.72084967     1.10340
C1159       C  0.37667047  0.70553640  0.62688906     1.10270
C1160       C  0.40235060  0.55395197  0.65020080     1.10250
O1161       O  0.68618741  0.46711979  0.67321864    -0.79370
O1162       O  0.55859064  0.49019210  0.60972326    -0.79390
O1163       O  0.65577082  0.48494019  0.59518134    -0.79400
O1164       O  0.58492549  0.49015002  0.69721143    -0.79340
O1165       O  0.60814339  0.47494395  0.56593208    -0.79470
O1166       O  0.63406771  0.46740939  0.71536749    -0.79390
O1167       O  0.53239240  0.46890167  0.65582288    -0.79370
O1168       O  0.67670867  0.48468773  0.62022383    -0.79410
C1169       C  0.69313208  0.48825005  0.64871169     1.10320
C1170       C  0.53485607  0.49167994  0.63171673     1.10200
C1171       C  0.63483325  0.49325283  0.57085165     1.10340
C1172       C  0.61178349  0.49208689  0.71527367     1.10220
O1173       O  0.62153123  0.39019239  0.69565426    -0.79370
O1174       O  0.59788114  0.39910595  0.58321629    -0.79450
O1175       O  0.69910822  0.42283360  0.60736793    -0.79380
O1176       O  0.55223317  0.39767236  0.66969725    -0.79360
O1177       O  0.53968697  0.41564550  0.61664052    -0.79420
O1178       O  0.67381786  0.39380347  0.65039352    -0.79380
O1179       O  0.58925739  0.42176354  0.72601128    -0.79340
O1180       O  0.64646892  0.42168518  0.56823019    -0.79410
Co1181     Co  0.64940551  0.43067110  0.67991543     1.51530
Co1182     Co  0.57925469  0.44466657  0.59826903     1.51690
Co1183     Co  0.65366472  0.43681571  0.61848780     1.51570
Co1184     Co  0.56961226  0.44437462  0.68238391     1.51470
O1185       O  0.60960149  0.44671978  0.64352858    -1.41310
C1186       C  0.60900702  0.39598030  0.72481155     1.10250
C1187       C  0.62193945  0.40095354  0.56153492     1.10340
C1188       C  0.70009578  0.39893953  0.63064465     1.10270
C1189       C  0.53471905  0.39503438  0.64244485     1.10250
O1190       O  0.30754078  0.55675803  0.43450219    -0.79370
O1191       O  0.46076148  0.54886897  0.36707514    -0.79390
O1192       O  0.35188242  0.54557386  0.32174731    -0.79400
O1193       O  0.39988940  0.56414310  0.46735399    -0.79340
O1194       O  0.40335148  0.52711410  0.33559602    -0.79470
O1195       O  0.37274065  0.53365972  0.43061668    -0.79390
O1196       O  0.44548613  0.54029971  0.42150817    -0.79370
O1197       O  0.32566064  0.53189942  0.38673487    -0.79410
C1198       C  0.30522381  0.53173607  0.41337069     1.10320
C1199       C  0.46044408  0.53018546  0.39454835     1.10200
C1200       C  0.37620124  0.52373512  0.31843139     1.10340
C1201       C  0.38216224  0.53754524  0.46095466     1.10220
O1202       O  0.35624025  0.60808901  0.45261165    -0.79370
O1203       O  0.39397041  0.59537810  0.30470999    -0.79450
O1204       O  0.29756136  0.58286037  0.34945674    -0.79380
O1205       O  0.46478398  0.61034726  0.40096238    -0.79360
O1206       O  0.44574035  0.61951356  0.34747729    -0.79420
O1207       O  0.31513051  0.61323744  0.39402026    -0.79380
O1208       O  0.40562855  0.63335712  0.43771146    -0.79340
O1209       O  0.35461145  0.62117832  0.33498566    -0.79410
Co1210     Co  0.34820844  0.57480139  0.41213503     1.51530
Co1211     Co  0.42315812  0.57359936  0.34218390     1.51690
Co1212     Co  0.34436567  0.57775342  0.36258310     1.51570
Co1213     Co  0.42596745  0.58743355  0.42794198     1.51470
O1214       O  0.39218339  0.58288857  0.38491830    -1.41310
C1215       C  0.37891451  0.63229079  0.45662350     1.10250
C1216       C  0.36902776  0.61628573  0.30616406     1.10340
C1217       C  0.29025403  0.60297569  0.37431581     1.10270
C1218       C  0.46880508  0.62279192  0.37032534     1.10250
O1219       O  0.56448439  0.13182691  0.99295719    -0.79370
O1220       O  0.69636610  0.09332125  0.97005155    -0.79390
O1221       O  0.59570914  0.06009417  0.95093931    -0.79400
O1222       O  0.64770686  0.21033785  0.96887614    -0.79340
O1223       O  0.62895866  0.08703194  0.98893109    -0.79470
O1224       O  0.60979521  0.18465250  0.00254907    -0.79390
O1225       O  0.68217080  0.14883034  0.98009502    -0.79370
O1226       O  0.54154650  0.10241142  0.95008201    -0.79410
C1227       C  0.54177335  0.11112948  0.98188668     1.10320
C1228       C  0.70063100  0.12120336  0.98710604     1.10200
C1229       C  0.60897365  0.06195845  0.98116126     1.10340
C1230       C  0.63126716  0.20908299  0.99746316     1.10220
O1231       O  0.59033445  0.21541926  0.93532514    -0.79370
O1232       O  0.65267521  0.06538488  0.92151482    -0.79450
O1233       O  0.56689722  0.13674935  0.88634558    -0.79380
O1234       O  0.69595200  0.18804919  0.92233818    -0.79360
O1235       O  0.68703985  0.13133674  0.91122525    -0.79420
O1236       O  0.54138995  0.16473552  0.92863943    -0.79380
O1237       O  0.62922916  0.19492373  0.89890809    -0.79340
O1238       O  0.61958020  0.09070820  0.88424212    -0.79410
Co1239     Co  0.57875936  0.17188073  0.96407654     1.51530
Co1240     Co  0.65521597  0.11031065  0.95094135     1.51690
Co1241     Co  0.58301275  0.10005814  0.91815066     1.51570
Co1242     Co  0.65365035  0.16891435  0.93684713     1.51470
O1243       O  0.61231968  0.13803397  0.94168421    -1.41310
C1244       C  0.60791703  0.21864952  0.90739491     1.10250
C1245       C  0.63648618  0.06394739  0.89276445     1.10340
C1246       C  0.54136861  0.15283322  0.89777307     1.10270
C1247       C  0.70624505  0.15948437  0.90951301     1.10250
O1248       O  0.16675430  0.00282700  0.63589111    -0.79370
O1249       O  0.07513174  0.99137357  0.63058628    -0.79390
O1250       O  0.12498542  0.98259858  0.57264093    -0.79400
O1251       O  0.10030499  0.95673317  0.72137909    -0.79340
O1252       O  0.07080025  0.96803761  0.56373435    -0.79470
O1253       O  0.12595380  0.99728891  0.69023932    -0.79390
O1254       O  0.05074402  0.95757834  0.67124657    -0.79370
O1255       O  0.18959042  0.96972770  0.59709436    -0.79410
C1256       C  0.19005622  0.99794519  0.61401139     1.10320
C1257       C  0.05181894  0.98591481  0.65317219     1.10200
C1258       C  0.09601991  0.98779913  0.55654584     1.10340
C1259       C  0.11176813  0.98779407  0.71809302     1.10220
O1260       O  0.16004611  0.93189395  0.71334102    -0.79370
O1261       O  0.10691667  0.90826225  0.57374031    -0.79450
O1262       O  0.17825670  0.89972238  0.61815166    -0.79380
O1263       O  0.06880887  0.88649861  0.65240908    -0.79360
O1264       O  0.04916584  0.92421856  0.61411051    -0.79420
O1265       O  0.20077356  0.93727884  0.65560962    -0.79380
O1266       O  0.12291029  0.88973590  0.69972015    -0.79340
O1267       O  0.15764478  0.92294201  0.55126688    -0.79410
Co1268     Co  0.16099297  0.96636521  0.67206810     1.51530
Co1269     Co  0.09292125  0.95091249  0.60461444     1.51690
Co1270     Co  0.14796277  0.93782874  0.59776546     1.51570
Co1271     Co  0.08844321  0.92316546  0.68285019     1.51470
O1272       O  0.12394563  0.94117721  0.64518023    -1.41310
C1273       C  0.14633222  0.90166171  0.71918676     1.10250
C1274       C  0.12915184  0.90657463  0.54851314     1.10340
C1275       C  0.20313964  0.90938941  0.63780682     1.10270
C1276       C  0.04522531  0.89625442  0.63196904     1.10250
O1277       O  0.15695789  0.70346532  0.96124181    -0.79370
O1278       O  0.09189530  0.55789680  0.96831331    -0.79390
O1279       O  0.07256763  0.63485845  0.01013006    -0.79400
O1280       O  0.19613573  0.58445323  0.96670447    -0.79340
O1281       O  0.04115278  0.60508735  0.97297317    -0.79470
O1282       O  0.18685750  0.64162552  0.97283862    -0.79390
O1283       O  0.13276236  0.58606772  0.99690914    -0.79370
O1284       O  0.12874161  0.67818900  0.00336605    -0.79410
C1285       C  0.14762703  0.70327474  0.99282405     1.10320
C1286       C  0.11097671  0.56130849  0.99526935     1.10200
C1287       C  0.04643284  0.61634029  0.00342322     1.10340
C1288       C  0.20466094  0.61367464  0.97943295     1.10220
O1289       O  0.19417608  0.67410075  0.91030378    -0.79370
O1290       O  0.05327775  0.63292611  0.90424085    -0.79450
O1291       O  0.09775202  0.70834348  0.93981488    -0.79380
O1292       O  0.14348366  0.55932490  0.92922100    -0.79360
O1293       O  0.10418076  0.58172670  0.89550531    -0.79420
O1294       O  0.12550092  0.68246862  0.89707262    -0.79380
O1295       O  0.17943032  0.61797088  0.90672708    -0.79340
O1296       O  0.04311581  0.66752593  0.94901469    -0.79410
Co1297     Co  0.15367755  0.65909174  0.93280140     1.51530
Co1298     Co  0.07510043  0.59654591  0.93477244     1.51690
Co1299     Co  0.08728373  0.66997273  0.97503840     1.51570
Co1300     Co  0.15368836  0.60398109  0.95352319     1.51470
O1301       O  0.11143581  0.63284182  0.94827154    -1.41310
C1302       C  0.20149470  0.64318187  0.90119986     1.10250
C1303       C  0.03615481  0.65725847  0.91848254     1.10340
C1304       C  0.11020913  0.70897779  0.90888836     1.10270
C1305       C  0.12416719  0.55678708  0.90292496     1.10250
O1306       O  0.98063718  0.57048058  0.14973315    -0.79370
O1307       O  0.97986703  0.66642528  0.13583236    -0.79390
O1308       O  0.96657632  0.61434234  0.08263619    -0.79400
O1309       O  0.94167653  0.65276482  0.22581345    -0.79340
O1310       O  0.95925738  0.67041282  0.06815108    -0.79470
O1311       O  0.97925497  0.61520376  0.20522743    -0.79390
O1312       O  0.94841355  0.69805758  0.17127562    -0.79370
O1313       O  0.94413605  0.55282941  0.11101372    -0.79410
C1314       C  0.97320925  0.55017482  0.12514622     1.10320
C1315       C  0.97715105  0.69185117  0.15626013     1.10200
C1316       C  0.97556079  0.64208974  0.06475496     1.10340
C1317       C  0.97110339  0.63855662  0.22695079     1.10220
O1318       O  0.91170081  0.59112238  0.22420638    -0.79370
O1319       O  0.89674041  0.64068455  0.07741254    -0.79450
O1320       O  0.87846902  0.57966112  0.12860553    -0.79380
O1321       O  0.87759061  0.67580831  0.14797156    -0.79360
O1322       O  0.91681472  0.69878479  0.11495945    -0.79420
O1323       O  0.90911024  0.54819408  0.16625978    -0.79380
O1324       O  0.87513235  0.62906645  0.20186962    -0.79340
O1325       O  0.90558123  0.58545149  0.06349048    -0.79410
Co1326     Co  0.94465831  0.58347327  0.18416239     1.51530
Co1327     Co  0.93937178  0.65189392  0.10948642     1.51690
Co1328     Co  0.92048163  0.59943297  0.10775598     1.51570
Co1329     Co  0.91070748  0.66190995  0.18445858     1.51470
O1330       O  0.92813742  0.62358475  0.15294209    -1.41310
C1331       C  0.88368860  0.60809434  0.22610921     1.10250
C1332       C  0.89174862  0.61461827  0.05663666     1.10340
C1333       C  0.88281008  0.55165393  0.14624536     1.10270
C1334       C  0.88760617  0.70097169  0.12906270     1.10250
O1335       O  0.96526049  0.20591474  0.60366126    -0.79370
O1336       O  0.96029479  0.05411456  0.65158114    -0.79390
O1337       O  0.00054122  0.13967061  0.65655180    -0.79400
O1338       O  0.99333529  0.11473185  0.59730039    -0.79340
O1339       O  0.97390773  0.10729539  0.69541995    -0.79470
O1340       O  0.96790676  0.15095709  0.56078889    -0.79390
O1341       O  0.96956295  0.04866969  0.59428449    -0.79370
O1342       O  0.98789837  0.20790867  0.65742639    -0.79410
C1343       C  0.98659615  0.21919476  0.62608010     1.10320
C1344       C  0.97418758  0.03806272  0.62538123     1.10200
C1345       C  0.00118101  0.12143387  0.68415613     1.10340
C1346       C  0.99401417  0.13367293  0.57015163     1.10220
O1347       O  0.89472087  0.13729872  0.56549871    -0.79370
O1348       O  0.90465538  0.12906096  0.70087945    -0.79450
O1349       O  0.92065350  0.20344325  0.65355972    -0.79380
O1350       O  0.90549910  0.06369077  0.60732340    -0.79360
O1351       O  0.88625790  0.07423807  0.65911320    -0.79420
O1352       O  0.88894266  0.19139929  0.60881819    -0.79380
O1353       O  0.93349137  0.09715685  0.55679429    -0.79340
O1354       O  0.94810101  0.16643697  0.70281287    -0.79410
Co1355     Co  0.92837132  0.16814117  0.58850946     1.51530
Co1356     Co  0.93033476  0.09466628  0.67289252     1.51690
Co1357     Co  0.95923344  0.16910972  0.65150371     1.51570
Co1358     Co  0.94908037  0.09107441  0.60592940     1.51470
O1359       O  0.93132678  0.13161312  0.63081196    -1.41310
C1360       C  0.90786537  0.11465893  0.54618560     1.10250
C1361       C  0.92197182  0.15188520  0.71712527     1.10340
C1362       C  0.89505521  0.20985131  0.63457395     1.10270
C1363       C  0.88522887  0.05667997  0.63188807     1.10250
O1364       O  0.53263340  0.97027198  0.12416695    -0.79370
O1365       O  0.68428625  0.96562698  0.16341211    -0.79390
O1366       O  0.58391589  0.97723576  0.19264922    -0.79400
O1367       O  0.62926469  0.98547884  0.05968011    -0.79340
O1368       O  0.63534413  0.96270632  0.20912374    -0.79470
O1369       O  0.58054088  0.99841696  0.08404508    -0.79390
O1370       O  0.66315346  0.99760657  0.12036919    -0.79370
O1371       O  0.55650264  0.97552361  0.17553903    -0.79410
C1372       C  0.53366440  0.98478085  0.15337040     1.10320
C1373       C  0.68324878  0.99442504  0.14580870     1.10200
C1374       C  0.61023308  0.98299144  0.21108181     1.10340
C1375       C  0.60433728  0.00593997  0.06316423     1.10220
O1376       O  0.59247669  0.92991032  0.05343584    -0.79370
O1377       O  0.61517041  0.89003563  0.19302660    -0.79450
O1378       O  0.53871617  0.91093282  0.15702355    -0.79380
O1379       O  0.69294679  0.93001448  0.11301143    -0.79360
O1380       O  0.66520041  0.89108347  0.14269727    -0.79420
O1381       O  0.55603141  0.89935933  0.10502814    -0.79380
O1382       O  0.64294826  0.91171196  0.07005987    -0.79340
O1383       O  0.56976711  0.91324820  0.21659363    -0.79410
Co1384     Co  0.56988206  0.94866936  0.09567052     1.51530
Co1385     Co  0.64659203  0.92833795  0.17247022     1.51690
Co1386     Co  0.58434185  0.93042283  0.17169177     1.51570
Co1387     Co  0.65204344  0.95502161  0.09521190     1.51470
O1388       O  0.61179290  0.94631627  0.13073192    -1.41310
C1389       C  0.61880984  0.91152599  0.04873763     1.10250
C1390       C  0.59639808  0.89474223  0.22001402     1.10340
C1391       C  0.53484659  0.89417768  0.12919932     1.10270
C1392       C  0.69270218  0.90087810  0.12865058     1.10250
C1393       C  0.01916060  0.61277705  0.02942559    -0.15670
C1394       C  0.00589237  0.64217903  0.04231905    -0.30840
H1395       H  0.00695215  0.58735985  0.03419522     0.13360
H1396       H  0.01650121  0.66763365  0.03434193     0.13930
C1397       C  0.02309460  0.01055983  0.65508592    -0.15670
C1398       C  0.99806020  0.00886132  0.63110578    -0.30840
H1399       H  0.02420165  0.03190288  0.67353118     0.13360
H1400       H  0.99914258  0.98869842  0.61136353     0.13930
C1401       C  0.60235073  0.03697561  0.04028598    -0.15670
C1402       C  0.60385519  0.03261593  0.00577385    -0.30840
H1403       H  0.60131933  0.06301768  0.05143213     0.13360
H1404       H  0.60231503  0.00629301  0.99519261     0.13930
C1405       C  0.36487544  0.64232639  0.51810495    -0.15670
C1406       C  0.37886826  0.65441566  0.48798595    -0.30840
H1407       H  0.34575128  0.62138513  0.51723251     0.13360
H1408       H  0.39885346  0.67447835  0.48903972     0.13930
C1409       C  0.51430168  0.55201169  0.62125001    -0.15670
C1410       C  0.50781557  0.51789493  0.62800991    -0.30840
H1411       H  0.54050684  0.56187345  0.61921564     0.13360
H1412       H  0.48172233  0.50929973  0.63403764     0.13930
C1413       C  0.47433777  0.37959953  0.65060764    -0.15670
C1414       C  0.50607238  0.36984345  0.64042726    -0.30840
H1415       H  0.47175080  0.40090499  0.66894369     0.13360
H1416       H  0.50871565  0.35006738  0.62051975     0.13930
C1417       C  0.39101203  0.49378301  0.50566286    -0.15670
C1418       C  0.36934767  0.51355600  0.48751337    -0.30840
H1419       H  0.41860439  0.49768943  0.50289503     0.13360
H1420       H  0.34187583  0.50818892  0.48814904     0.13930
C1421       C  0.37564566  0.50042222  0.62689657    -0.15670
C1422       C  0.39655471  0.51565151  0.64979592    -0.30840
H1423       H  0.35553400  0.51556683  0.61417812     0.13360
H1424       H  0.41588219  0.49956626  0.66275068     0.13930
C1425       C  0.58914911  0.54075364  0.75015172    -0.15670
C1426       C  0.61625939  0.52260544  0.73808302    -0.30840
H1427       H  0.56304229  0.53199174  0.74503097     0.13360
H1428       H  0.64213248  0.52961548  0.74619491     0.13930
C1429       C  0.50346378  0.63294586  0.74216934    -0.15670
C1430       C  0.51344909  0.66317484  0.75670134    -0.30840
H1431       H  0.51501199  0.60848692  0.75119158     0.13360
H1432       H  0.50172557  0.68786174  0.74871774     0.13930
C1433       C  0.26768248  0.48428369  0.39353705    -0.15670
C1434       C  0.27990128  0.50361344  0.41967941    -0.30840
H1435       H  0.27798288  0.48790050  0.36734732     0.13360
H1436       H  0.26847638  0.50135929  0.44550127     0.13930
C1437       C  0.26290614  0.35636508  0.47996372    -0.15670
C1438       C  0.29454826  0.37146150  0.48012720    -0.30840
H1439       H  0.25484023  0.34081759  0.50259685     0.13360
H1440       H  0.30250016  0.38739595  0.45771431     0.13930
C1441       C  0.52135762  0.74516680  0.65083799    -0.15670
C1442       C  0.48882160  0.74525996  0.66219845    -0.30840
H1443       H  0.53054640  0.72289697  0.63614793     0.13360
H1444       H  0.47876201  0.76735196  0.67649336     0.13930
C1445       C  0.62528036  0.74196266  0.72391485    -0.15670
C1446       C  0.64369850  0.73905078  0.75320304    -0.30840
H1447       H  0.60721006  0.72134576  0.71690981     0.13360
H1448       H  0.66185538  0.75967782  0.75995905     0.13930
C1449       C  0.27211259  0.26370727  0.37251553    -0.15670
C1450       C  0.25052765  0.27031126  0.39899965    -0.30840
H1451       H  0.26928476  0.27676175  0.34724570     0.13360
H1452       H  0.25156697  0.25522524  0.42330221     0.13930
C1453       C  0.36595636  0.26462340  0.51110063    -0.15670
C1454       C  0.39457905  0.24849700  0.49993526    -0.30840
H1455       H  0.34078173  0.25694656  0.50147473     0.13360
H1456       H  0.41958679  0.25431140  0.51108836     0.13930
C1457       C  0.37806191  0.14217942  0.25468928    -0.15670
C1458       C  0.40299394  0.14260855  0.27866053    -0.30840
H1459       H  0.35108358  0.14464348  0.26150160     0.13360
H1460       H  0.42982801  0.14130666  0.27086638     0.13930
C1461       C  0.50512290  0.04088854  0.14065505    -0.15670
C1462       C  0.50841406  0.01234676  0.16165493    -0.30840
H1463       H  0.52290502  0.04452796  0.11896940     0.13360
H1464       H  0.49242149  0.00909227  0.18472752     0.13930
C1465       C  0.51347751  0.11396406  0.03782494    -0.15670
C1466       C  0.51356814  0.10091529  0.00555168    -0.30840
H1467       H  0.53564352  0.12843620  0.04735320     0.13360
H1468       H  0.49110705  0.08750911  0.99528975     0.13930
C1469       C  0.35706668  0.61285068  0.24330007    -0.15670
C1470       C  0.35359590  0.63019328  0.27351096    -0.30840
H1471       H  0.37263595  0.58930362  0.24216108     0.13360
H1472       H  0.33639117  0.65251621  0.27479508     0.13930
C1473       C  0.24993779  0.64585759  0.00967637    -0.15670
C1474       C  0.23399170  0.61536481  0.00288990    -0.30840
H1475       H  0.24236915  0.67024376  0.99677840     0.13360
H1476       H  0.24291061  0.59085098  0.01461625     0.13930
C1477       C  0.38218791  0.23973153  0.63952988    -0.15670
C1478       C  0.37211038  0.27198062  0.64802194    -0.30840
H1479       H  0.40407357  0.23744913  0.62206437     0.13360
H1480       H  0.34978714  0.27449648  0.66486457     0.13930
C1481       C  0.38287421  0.12144301  0.51931884    -0.15670
C1482       C  0.36620658  0.11276641  0.48977316    -0.30840
H1483       H  0.40502729  0.13891234  0.51697704     0.13360
H1484       H  0.34207081  0.09836032  0.49227932     0.13930
C1485       C  0.21883746  0.02315226  0.61121993    -0.15670
C1486       C  0.23129408  0.03923992  0.63982436    -0.30840
H1487       H  0.23123995  0.02698276  0.58602563     0.13360
H1488       H  0.22080470  0.03283594  0.66545579     0.13930
C1489       C  0.51294398  0.26529030  0.36768263    -0.15670
C1490       C  0.48707011  0.25867978  0.38997838    -0.30840
H1491       H  0.51683479  0.24959394  0.34461857     0.13360
H1492       H  0.48472988  0.27312216  0.41408623     0.13930
C1493       C  0.48706243  0.39753042  0.48127640    -0.15670
C1494       C  0.48739717  0.40646575  0.51514694    -0.30840
H1495       H  0.46370661  0.38555632  0.47123917     0.13360
H1496       H  0.51011980  0.41835086  0.52652084     0.13930
C1497       C  0.62809528  0.39536953  0.49682112    -0.15670
C1498       C  0.61772134  0.38217956  0.52808147    -0.30840
H1499       H  0.64532605  0.41797439  0.49598500     0.13360
H1500       H  0.59897092  0.36086591  0.52852951     0.13930
C1501       C  0.48853995  0.48149683  0.36580910    -0.15670
C1502       C  0.47994741  0.49729683  0.39556768    -0.30840
H1503       H  0.47974907  0.49219049  0.34092639     0.13360
H1504       H  0.48833305  0.48675910  0.42064083     0.13930
C1505       C  0.53087318  0.61681570  0.36490182    -0.15670
C1506       C  0.50264732  0.63642746  0.35906302    -0.30840
H1507       H  0.54661841  0.61325064  0.34179720     0.13360
H1508       H  0.50144858  0.64920117  0.33348621     0.13930
C1509       C  0.51674471  0.65225294  0.51003025    -0.15670
C1510       C  0.49980243  0.62454465  0.52431327    -0.30840
H1511       H  0.50909794  0.67897633  0.51570856     0.13360
H1512       H  0.50550679  0.59795559  0.51624768     0.13930
C1513       C  0.64336715  0.52195693  0.51360760    -0.15670
C1514       C  0.64121505  0.52443513  0.54843236    -0.30840
H1515       H  0.64521776  0.49628027  0.50176505     0.13360
H1516       H  0.64151780  0.55005654  0.56051781     0.13930
C1517       C  0.62020499  0.52832595  0.37767807    -0.15670
C1518       C  0.59039131  0.51047314  0.37774256    -0.30840
H1519       H  0.64422191  0.51474293  0.37321587     0.13360
H1520       H  0.56703501  0.52519732  0.38263785     0.13930
C1521       C  0.62013095  0.72133931  0.52780212    -0.15670
C1522       C  0.64878438  0.73962403  0.53569392    -0.30840
H1523       H  0.59523644  0.72932915  0.53761368     0.13360
H1524       H  0.67314308  0.73317725  0.52354307     0.13930
C1525       C  0.39427765  0.28133804  0.13554272    -0.15670
C1526       C  0.37414159  0.25253587  0.13818281    -0.30840
H1527       H  0.41976723  0.27962365  0.12408081     0.13360
H1528       H  0.35072253  0.25334588  0.15363634     0.13930
C1529       C  0.36706555  0.49779272  0.14338900    -0.15670
C1530       C  0.35859924  0.52771854  0.15991422    -0.30840
H1531       H  0.36612629  0.49642237  0.11515242     0.13360
H1532       H  0.35924515  0.52783015  0.18825588     0.13930
C1533       C  0.40276430  0.48362427  0.27700495    -0.15670
C1534       C  0.37423056  0.49522101  0.29324298    -0.30840
H1535       H  0.42739623  0.49673993  0.28039415     0.13360
H1536       H  0.34913632  0.48423173  0.28712469     0.13930
C1537       C  0.26702256  0.37212836  0.26867289    -0.15670
C1538       C  0.25337484  0.40228883  0.27974910    -0.30840
H1539       H  0.25780769  0.34669064  0.27827012     0.13360
H1540       H  0.26107362  0.42763118  0.26862685     0.13930
C1541       C  0.35457358  0.28384829  0.27440482    -0.15670
C1542       C  0.37216724  0.28130286  0.30463831    -0.30840
H1543       H  0.33782597  0.26233733  0.26681140     0.13360
H1544       H  0.38899750  0.30279689  0.31213116     0.13930
C1545       C  0.47842116  0.36943788  0.27858698    -0.15670
C1546       C  0.50248930  0.34631284  0.28842316    -0.30840
H1547       H  0.47665254  0.39423946  0.29215687     0.13360
H1548       H  0.50659706  0.32272496  0.27344337     0.13930
C1549       C  0.22011865  0.51557371  0.08672407    -0.15670
C1550       C  0.22347810  0.54325574  0.10744236    -0.30840
H1551       H  0.23915770  0.51113929  0.06656500     0.13360
H1552       H  0.20351441  0.54795795  0.12663537     0.13930
C1553       C  0.24523998  0.40420206  0.13560818    -0.15670
C1554       C  0.27229320  0.42534550  0.14123538    -0.30840
H1555       H  0.24771047  0.37575509  0.13621209     0.13360
H1556       H  0.26850988  0.45366564  0.14161592     0.13930
C1557       C  0.13867348  0.38164521  0.24031846    -0.15670
C1558       C  0.12528095  0.39139263  0.27168791    -0.30840
H1559       H  0.16058074  0.36411810  0.24024510     0.13360
H1560       H  0.10484701  0.41068776  0.27192735     0.13930
C1561       C  0.09433771  0.50404058  0.02356341    -0.15670
C1562       C  0.11075128  0.53526674  0.02426251    -0.30840
H1563       H  0.07794326  0.49750426  0.00167757     0.13360
H1564       H  0.12714331  0.54124621  0.04634791     0.13930
C1565       C  0.99733016  0.52257584  0.11409140    -0.15670
C1566       C  0.03065569  0.52351590  0.12312821    -0.30840
H1567       H  0.98707354  0.50022170  0.10013130     0.13360
H1568       H  0.04064221  0.54642840  0.13643461     0.13930
C1569       C  0.25018812  0.36342026  0.61700504    -0.15670
C1570       C  0.26040872  0.39551934  0.60590497    -0.30840
H1571       H  0.26886404  0.34235478  0.61918379     0.13360
H1572       H  0.24175902  0.41571538  0.59946715     0.13930
C1573       C  0.20382189  0.23445707  0.64087196    -0.15670
C1574       C  0.23691790  0.23890211  0.63154878    -0.30840
H1575       H  0.19286089  0.20833308  0.64469229     0.13360
H1576       H  0.24616644  0.26526374  0.62498149     0.13930
C1577       C  0.15212937  0.40378938  0.52637548    -0.15670
C1578       C  0.13355087  0.40001299  0.49696850    -0.30840
H1579       H  0.17910094  0.41114585  0.52426303     0.13360
H1580       H  0.10761777  0.38928983  0.49892951     0.13930
C1581       C  0.01157912  0.24597761  0.61447167    -0.15670
C1582       C  0.04479379  0.24245094  0.62351067    -0.30840
H1583       H  0.00290856  0.26828396  0.59884819     0.13360
H1584       H  0.05276400  0.21934162  0.63844673     0.13930
C1585       C  0.60350599  0.39204122  0.24585867    -0.15670
C1586       C  0.62445334  0.39356461  0.27377038    -0.30840
H1587       H  0.57619620  0.39688569  0.24895032     0.13360
H1588       H  0.65090238  0.38489499  0.27148722     0.13930
C1589       C  0.52657031  0.25506021  0.14425441    -0.15670
C1590       C  0.50274576  0.24536894  0.16758263    -0.30840
H1591       H  0.52713090  0.24275602  0.11888799     0.13360
H1592       H  0.50144046  0.25842908  0.19253658     0.13930
C1593       C  0.51976424  0.39400900  0.13634887    -0.15670
C1594       C  0.48757615  0.38121106  0.13561398    -0.30840
H1595       H  0.52531015  0.41598812  0.15322375     0.13360
H1596       H  0.48302326  0.35671756  0.12207035     0.13930
C1597       C  0.61054249  0.25551462  0.03740659    -0.15670
C1598       C  0.63663843  0.23611904  0.02450818    -0.30840
H1599       H  0.58500209  0.25315167  0.02627154     0.13360
H1600       H  0.66274578  0.24093966  0.03329483     0.13930
C1601       C  0.22051425  0.12401221  0.75358635    -0.15670
C1602       C  0.23128514  0.15463102  0.73839434    -0.30840
H1603       H  0.23339087  0.09969403  0.74720960     0.13360
H1604       H  0.22101485  0.17941094  0.74727482     0.13930
C1605       C  0.11273502  0.01139777  0.74784794    -0.15670
C1606       C  0.12679453  0.04367332  0.74480517    -0.30840
H1607       H  0.10362547  0.00161235  0.77304379     0.13360
H1608       H  0.13437326  0.05466859  0.71958258     0.13930
C1609       C  0.14779284  0.24397582  0.75770143    -0.15670
C1610       C  0.11743016  0.25678350  0.74701195    -0.30840
H1611       H  0.17188972  0.25618774  0.74959799     0.13360
H1612       H  0.09375001  0.24454183  0.75643460     0.13930
C1613       C  0.02853791  0.10302205  0.73759909    -0.15670
C1614       C  0.03080681  0.12206789  0.70781725    -0.30840
H1615       H  0.00905930  0.08250642  0.74037253     0.13360
H1616       H  0.05078737  0.14186493  0.70403364     0.13930
C1617       C  0.71036937  0.73993224  0.64936086    -0.15670
C1618       C  0.74095140  0.73989597  0.66593069    -0.30840
H1619       H  0.70358299  0.71831940  0.63246783     0.13360
H1620       H  0.74781631  0.76140343  0.68290264     0.13930
C1621       C  0.72079934  0.51454402  0.65466160    -0.15670
C1622       C  0.73916564  0.53100376  0.62948508    -0.30840
H1623       H  0.72853203  0.51794123  0.68162804     0.13360
H1624       H  0.73204287  0.52784872  0.60233485     0.13930
C1625       C  0.72977833  0.64124793  0.71913219    -0.15670
C1626       C  0.72781460  0.65915779  0.74879457    -0.30840
H1627       H  0.70805427  0.62552871  0.71052396     0.13360
H1628       H  0.74974852  0.67442509  0.75762329     0.13930
C1629       C  0.75388341  0.61801913  0.53150190    -0.15670
C1630       C  0.72490625  0.63623932  0.52918337    -0.30840
H1631       H  0.76198697  0.60124887  0.51037968     0.13360
H1632       H  0.71797843  0.65493576  0.54908267     0.13930
C1633       C  0.74317658  0.23690362  0.13750281    -0.15670
C1634       C  0.73783201  0.26089623  0.16221403    -0.30840
H1635       H  0.72699254  0.23574567  0.11445793     0.13360
H1636       H  0.75510770  0.26357881  0.18425604     0.13930
C1637       C  0.74533183  0.14676688  0.02613189    -0.15670
C1638       C  0.72454299  0.12007152  0.01678102    -0.30840
H1639       H  0.74595103  0.17123772  0.01108701     0.13360
H1640       H  0.72674846  0.09477126  0.03020867     0.13930
C1641       C  0.74092874  0.01841521  0.16011028    -0.15670
C1642       C  0.70799940  0.02334722  0.15079386    -0.30840
H1643       H  0.74925723  0.99320251  0.17070122     0.13360
H1644       H  0.70059751  0.04875365  0.13990523     0.13930
C1645       C  0.14443520  0.53300629  0.39783618    -0.15670
C1646       C  0.13165747  0.50113289  0.38961557    -0.30840
H1647       H  0.13760030  0.54167173  0.42382329     0.13360
H1648       H  0.11280348  0.49096492  0.40827282     0.13930
C1649       C  0.23523939  0.63424601  0.38652257    -0.15670
C1650       C  0.25382872  0.60482048  0.38445566    -0.30840
H1651       H  0.24753461  0.65945701  0.39109469     0.13360
H1652       H  0.23984942  0.58052569  0.37931045     0.13930
C1653       C  0.22903432  0.67167434  0.25360565    -0.15670
C1654       C  0.22568113  0.66562859  0.21950481    -0.30840
H1655       H  0.25325202  0.68115625  0.26404280     0.13360
H1656       H  0.20087636  0.65656346  0.21001954     0.13930
C1657       C  0.10864058  0.52579797  0.26048040    -0.15670
C1658       C  0.13121642  0.51766181  0.23556484    -0.30840
H1659       H  0.08463343  0.51130347  0.26364099     0.13360
H1660       H  0.15615297  0.53066028  0.23398686     0.13930
C1661       C  0.99518518  0.64803044  0.25550124    -0.15670
C1662       C  0.02535623  0.63152642  0.25906486    -0.30840
H1663       H  0.98706680  0.66666871  0.27495951     0.13360
H1664       H  0.03238999  0.61214812  0.23985401     0.13930
C1665       C  0.11575807  0.74075981  0.23243664    -0.15670
C1666       C  0.10302086  0.74365837  0.26454889    -0.30840
H1667       H  0.13153410  0.71819977  0.22625264     0.13360
H1668       H  0.08650125  0.76551469  0.27103137     0.13930
C1669       C  0.15363179  0.73401920  0.01543730    -0.15670
C1670       C  0.14153916  0.73297175  0.04824811    -0.30840
H1671       H  0.16289801  0.75858319  0.00387025     0.13360
H1672       H  0.13182466  0.70808129  0.05876977     0.13930
C1673       C  0.23623224  0.73018781  0.12173983    -0.15670
C1674       C  0.23049304  0.75072148  0.14914451    -0.30840
H1675       H  0.21830216  0.72990666  0.10004830     0.13360
H1676       H  0.24790852  0.74990041  0.17127808     0.13930
C1677       C  0.00715039  0.74878922  0.16867886    -0.15670
C1678       C  0.00756214  0.71514664  0.15858001    -0.30840
H1679       H  0.98425073  0.75960559  0.18050835     0.13360
H1680       H  0.03087169  0.70515112  0.14676619     0.13930
C1681       C  0.63296195  0.26604288  0.39554373    -0.15670
C1682       C  0.61116672  0.23815831  0.39468457    -0.30840
H1683       H  0.65639168  0.26530859  0.38013712     0.13360
H1684       H  0.58624452  0.24031575  0.40724047     0.13930
C1685       C  0.52322952  0.13383767  0.39606124    -0.15670
C1686       C  0.49047216  0.12507726  0.38835778    -0.30840
H1687       H  0.52816546  0.15306157  0.41611733     0.13360
H1688       H  0.48570505  0.10791420  0.36650148     0.13930
C1689       C  0.62209644  0.22782635  0.24227058    -0.15670
C1690       C  0.64553455  0.25340959  0.23705724    -0.30840
H1691       H  0.59988885  0.22603880  0.22521485     0.13360
H1692       H  0.66676147  0.25623557  0.25519723     0.13930
C1693       C  0.72893376  0.12805387  0.22200021    -0.15670
C1694       C  0.72381336  0.10827944  0.25087826    -0.30840
H1695       H  0.71191018  0.15007917  0.21685871     0.13360
H1696       H  0.73960720  0.08520573  0.25535180     0.13930
C1697       C  0.51109989  0.14778834  0.25422762    -0.15670
C1698       C  0.50701554  0.12682084  0.22628170    -0.30840
H1699       H  0.49227616  0.16789150  0.25978742     0.13360
H1700       H  0.52548910  0.10634440  0.22090345     0.13930
C1701       C  0.61036843  0.01185052  0.23502940    -0.15670
C1702       C  0.63344444  0.01509016  0.26093559    -0.30840
H1703       H  0.58946992  0.03042646  0.23177931     0.13360
H1704       H  0.65340669  0.99572072  0.26541143     0.13930
C1705       C  0.11604202  0.26948735  0.36886246    -0.15670
C1706       C  0.12795104  0.23704649  0.36119577    -0.30840
H1707       H  0.09275921  0.27126470  0.38439416     0.13360
H1708       H  0.15150783  0.23480730  0.34620161     0.13930
C1709       C  0.24013998  0.12421996  0.40865104    -0.15670
C1710       C  0.26063413  0.13811353  0.38456254    -0.30840
H1711       H  0.25095146  0.11080199  0.43131550     0.13360
H1712       H  0.24953017  0.15139943  0.36193588     0.13930
C1713       C  0.12826215  0.26642797  0.51132191    -0.15670
C1714       C  0.15072067  0.24738477  0.49318372    -0.30840
H1715       H  0.10092595  0.26280586  0.50659833     0.13360
H1716       H  0.17822186  0.25160942  0.49578508     0.13930
C1717       C  0.21583868  0.14728642  0.51960245    -0.15670
C1718       C  0.23708623  0.12482144  0.53466107    -0.30840
H1719       H  0.21916957  0.17546884  0.52270642     0.13360
H1720       H  0.23453296  0.09678036  0.52997498     0.13930
C1721       C  0.01508744  0.12227536  0.51283013    -0.15670
C1722       C  0.02229624  0.13149344  0.54567511    -0.30840
H1723       H  0.98986616  0.11188375  0.50618227     0.13360
H1724       H  0.04783844  0.13999539  0.55341782     0.13930
C1725       C  0.09119577  0.01626352  0.53003232    -0.15670
C1726       C  0.10433994  0.04902735  0.53247024    -0.30840
H1727       H  0.07502988  0.00998152  0.50789003     0.13360
H1728       H  0.11944758  0.05583545  0.55521195     0.13930
C1729       C  0.88600046  0.77661512  0.61229293    -0.15670
C1730       C  0.87487640  0.75843228  0.64039109    -0.30840
H1731       H  0.88751821  0.76297866  0.58764489     0.13360
H1732       H  0.87395647  0.77105944  0.66555357     0.13930
C1733       C  0.74674522  0.87363533  0.62729763    -0.15670
C1734       C  0.77107687  0.85259511  0.61454467    -0.30840
H1735       H  0.75333896  0.89899281  0.63813324     0.13360
H1736       H  0.76379646  0.82693501  0.60473587     0.13930
C1737       C  0.98462411  0.88481277  0.64971782    -0.15670
C1738       C  0.01212811  0.87703305  0.62929970    -0.30840
H1739       H  0.98855725  0.89872087  0.67390298     0.13360
H1740       H  0.00772285  0.86439208  0.60450494     0.13930
C1741       C  0.89007912  0.99660190  0.64741569    -0.15670
C1742       C  0.87011177  0.02137462  0.63235510    -0.30840
H1743       H  0.91131713  0.00466703  0.66394392     0.13360
H1744       H  0.85210482  0.01415821  0.61202183     0.13930
C1745       C  0.85665391  0.14925687  0.25112303    -0.15670
C1746       C  0.86046577  0.11983698  0.27049622    -0.30840
H1747       H  0.85405527  0.17433643  0.26397768     0.13360
H1748       H  0.85826805  0.09452652  0.25788566     0.13930
C1749       C  0.76229569  0.12914234  0.38337164    -0.15670
C1750       C  0.73880670  0.10338586  0.38865294    -0.30840
H1751       H  0.75472998  0.15356728  0.37052566     0.13360
H1752       H  0.74671576  0.07846525  0.40019146     0.13930
C1753       C  0.98233839  0.15608197  0.37609715    -0.15670
C1754       C  0.01123937  0.13898136  0.36838437    -0.30840
H1755       H  0.98372989  0.18126007  0.38902137     0.13360
H1756       H  0.00938911  0.11453998  0.35416216     0.13930
C1757       C  0.87907902  0.13447253  0.49061146    -0.15670
C1758       C  0.89936567  0.11245577  0.50929294    -0.30840
H1759       H  0.86182069  0.15271713  0.50305976     0.13360
H1760       H  0.91651767  0.09501652  0.49577807     0.13930
C1761       C  0.87470263  0.00119593  0.48310454    -0.15670
C1762       C  0.88419213  0.00683951  0.51647633    -0.30840
H1763       H  0.86318591  0.97600495  0.47683698     0.13360
H1764       H  0.89894647  0.03023271  0.52270015     0.13930
C1765       C  0.12846171  0.87128345  0.24825477    -0.15670
C1766       C  0.12575385  0.84699105  0.27395706    -0.30840
H1767       H  0.12047990  0.89819975  0.25239839     0.13360
H1768       H  0.13085177  0.81957252  0.26845754     0.13930
C1769       C  0.13424679  0.74866971  0.40063762    -0.15670
C1770       C  0.14928007  0.77976134  0.39279907    -0.30840
H1771       H  0.11069815  0.74797303  0.41591928     0.13360
H1772       H  0.17311788  0.78042943  0.37799685     0.13930
C1773       C  0.11562655  0.99604885  0.39048620    -0.15670
C1774       C  0.13268052  0.01183384  0.41636743    -0.30840
H1775       H  0.10555361  0.01139449  0.36870265     0.13360
H1776       H  0.14359006  0.99558407  0.43711784     0.13930
C1777       C  0.96197628  0.99369629  0.36519902    -0.15670
C1778       C  0.98978669  0.98498096  0.38365019    -0.30840
H1779       H  0.95198986  0.97617934  0.34547452     0.13360
H1780       H  0.00062410  0.00341398  0.40207556     0.13930
C1781       C  0.13765498  0.88905862  0.48615892    -0.15670
C1782       C  0.11960809  0.88715400  0.51638788    -0.30840
H1783       H  0.16295679  0.90129005  0.48603087     0.13360
H1784       H  0.09400170  0.87559666  0.51614645     0.13930
C1785       C  0.99237653  0.90558848  0.48680980    -0.15670
C1786       C  0.95881522  0.90545972  0.47939353    -0.30840
H1787       H  0.00144212  0.90815046  0.51346258     0.13360
H1788       H  0.94984394  0.90655854  0.45255377     0.13930
C1789       C  0.75856349  0.86984466  0.48956688    -0.15670
C1790       C  0.78033935  0.89735035  0.48803435    -0.30840
H1791       H  0.76128241  0.84961032  0.50971147     0.13360
H1792       H  0.77775358  0.91688690  0.46717958     0.13930
C1793       C  0.61793237  0.88186631  0.49055334    -0.15670
C1794       C  0.63763548  0.88544576  0.51927864    -0.30840
H1795       H  0.59264370  0.86980264  0.49306290     0.13360
H1796       H  0.66323600  0.89676162  0.51647725     0.13930
C1797       C  0.63500089  0.77072452  0.39497035    -0.15670
C1798       C  0.65984856  0.74820324  0.40328174    -0.30840
H1799       H  0.60926457  0.76157873  0.38871203     0.13360
H1800       H  0.68496118  0.75841555  0.41028080     0.13930
C1801       C  0.60087125  0.99064409  0.38667661    -0.15670
C1802       C  0.61504845  0.02224981  0.39445345    -0.30840
H1803       H  0.57734404  0.99000996  0.37148004     0.13360
H1804       H  0.63818611  0.02302656  0.41025012     0.13930
C1805       C  0.77628401  0.96816960  0.38964093    -0.15670
C1806       C  0.76871229  0.00200944  0.38411558    -0.30840
H1807       H  0.80285872  0.95959632  0.39114727     0.13360
H1808       H  0.74262785  0.01013164  0.37806395     0.13930
C1809       C  0.60959062  0.88645030  0.25474103    -0.15670
C1810       C  0.61501561  0.91332587  0.27628593    -0.30840
H1811       H  0.61939160  0.86037750  0.26071979     0.13360
H1812       H  0.60764987  0.93975561  0.26856732     0.13930
C1813       C  0.77674283  0.60930373  0.39263919    -0.15670
C1814       C  0.74750967  0.62826782  0.39088659    -0.30840
H1815       H  0.77619045  0.58345008  0.40512055     0.13360
H1816       H  0.74865271  0.65474088  0.37979162     0.13930
C1817       C  0.76951219  0.78619259  0.37880021    -0.15670
C1818       C  0.76622596  0.75744222  0.39915264    -0.30840
H1819       H  0.79173982  0.78878021  0.36171712     0.13360
H1820       H  0.74515934  0.75519404  0.41764126     0.13930
C1821       C  0.87535266  0.80461596  0.48383954    -0.15670
C1822       C  0.86330017  0.77168249  0.48277136    -0.30840
H1823       H  0.88985767  0.81610964  0.46216642     0.13360
H1824       H  0.84959302  0.75962349  0.50466304     0.13930
C1825       C  0.85541493  0.64961565  0.50290407    -0.15670
C1826       C  0.87826593  0.64706000  0.52942010    -0.30840
H1827       H  0.82862363  0.65417720  0.50941500     0.13360
H1828       H  0.90496919  0.64041846  0.52501389     0.13930
C1829       C  0.98727554  0.62397666  0.36260842    -0.15670
C1830       C  0.01158747  0.62053867  0.38719590    -0.30840
H1831       H  0.99340701  0.61679637  0.33601965     0.13360
H1832       H  0.00740955  0.63075923  0.41310983     0.13930
C1833       C  0.97435517  0.75973215  0.38546455    -0.15670
C1834       C  0.96903175  0.79438551  0.39134166    -0.30840
H1835       H  0.99987043  0.75074290  0.37862348     0.13360
H1836       H  0.94284798  0.80364210  0.39427701     0.13930
C1837       C  0.87851387  0.59860546  0.28976180    -0.15670
C1838       C  0.86476375  0.61016399  0.25948191    -0.30840
H1839       H  0.89820340  0.57850815  0.28948531     0.13360
H1840       H  0.84457947  0.62975046  0.26035913     0.13930
C1841       C  0.86679099  0.98317176  0.12203502    -0.15670
C1842       C  0.87995499  0.01485087  0.12950039    -0.30840
H1843       H  0.84419207  0.98178192  0.10546326     0.13360
H1844       H  0.90167798  0.01624922  0.14723335     0.13930
C1845       C  0.97351123  0.86145544  0.12561286    -0.15670
C1846       C  0.00335277  0.87948197  0.12704087    -0.30840
H1847       H  0.97334378  0.83549865  0.11416012     0.13360
H1848       H  0.00391720  0.90449305  0.14033290     0.13930
C1849       C  0.85430393  0.98570875  0.26646923    -0.15670
C1850       C  0.86849290  0.97914059  0.29758369    -0.30840
H1851       H  0.83868621  0.00899102  0.26235195     0.13360
H1852       H  0.88169562  0.95444094  0.30241618     0.13930
C1853       C  0.99729912  0.87217713  0.28115030    -0.15670
C1854       C  0.97688995  0.84574637  0.27026298    -0.30840
H1855       H  0.99363183  0.89837013  0.27006742     0.13360
H1856       H  0.98051687  0.81946375  0.28113124     0.13930
C1857       C  0.86906913  0.78548885  0.30474558    -0.15670
C1858       C  0.85079865  0.78269762  0.27563624    -0.30840
H1859       H  0.88326677  0.80956209  0.30990674     0.13360
H1860       H  0.83592411  0.75891539  0.27108698     0.13930
C1861       C  0.88647173  0.76436895  0.13285303    -0.15670
C1862       C  0.86878784  0.73425703  0.13049489    -0.30840
H1863       H  0.91397783  0.76439151  0.12783324     0.13360
H1864       H  0.84228609  0.73323658  0.13951789     0.13930
C1865       C  0.74488445  0.88735649  0.27730322    -0.15670
C1866       C  0.77856677  0.87834693  0.27818646    -0.30840
H1867       H  0.73272004  0.89378608  0.25255877     0.13360
H1868       H  0.79110304  0.87558361  0.30338660     0.13930
C1869       C  0.75458153  0.90282626  0.13485023    -0.15670
C1870       C  0.72543734  0.88367544  0.13690639    -0.30840
H1871       H  0.75415541  0.92979567  0.12501899     0.13360
H1872       H  0.72524121  0.85807457  0.14999116     0.13930
C1873       C  0.76276453  0.62984194  0.87383498    -0.15670
C1874       C  0.73965610  0.60424628  0.86779348    -0.30840
H1875       H  0.75439194  0.65654708  0.87848116     0.13360
H1876       H  0.74881820  0.57800388  0.86229107     0.13930
C1877       C  0.86644709  0.60319952  0.75033013    -0.15670
C1878       C  0.87410838  0.62802659  0.77391533    -0.30840
H1879       H  0.86552222  0.57594307  0.75837284     0.13360
H1880       H  0.87196170  0.65557147  0.76642922     0.13930
C1881       C  0.98488508  0.65177398  0.88211783    -0.15670
C1882       C  0.00431029  0.67127611  0.90303296    -0.30840
H1883       H  0.99731592  0.63267336  0.86565907     0.13360
H1884       H  0.99111988  0.69035828  0.91900516     0.13930
C1885       C  0.87699238  0.64242560  0.00041262    -0.15670
C1886       C  0.87097062  0.61721967  0.02472260    -0.30840
H1887       H  0.88806055  0.66753524  0.00771522     0.13360
H1888       H  0.86057293  0.59225910  0.01591462     0.13930
C1889       C  0.85526614  0.27158864  0.14291082    -0.15670
C1890       C  0.86964166  0.24814696  0.12167203    -0.30840
H1891       H  0.83464513  0.26305613  0.16030578     0.13360
H1892       H  0.88647396  0.25749769  0.10079482     0.13930
C1893       C  0.74358668  0.39417594  0.11992176    -0.15670
C1894       C  0.76919894  0.39213730  0.14355829    -0.30840
H1895       H  0.74937183  0.40078872  0.09287370     0.13360
H1896       H  0.76360487  0.38294456  0.16997810     0.13930
C1897       C  0.86575876  0.48961712  0.15361759    -0.15670
C1898       C  0.86212626  0.52038915  0.13657412    -0.30840
H1899       H  0.87728867  0.48971477  0.17943260     0.13360
H1900       H  0.85017552  0.52084379  0.11097354     0.13930
C1901       C  0.90006096  0.52125538  0.99613803    -0.15670
C1902       C  0.87695793  0.49586847  0.00337364    -0.30840
H1903       H  0.91962606  0.52855508  0.01489129     0.13360
H1904       H  0.85682141  0.49029857  0.98457085     0.13930
C1905       C  0.97770647  0.42176706  0.14914581    -0.15670
C1906       C  0.00077112  0.39765893  0.15888272    -0.30840
H1907       H  0.98534198  0.44931860  0.14758837     0.13360
H1908       H  0.99438520  0.36986310  0.15740235     0.13930
C1909       C  0.12476884  0.40125042  0.76744376    -0.15670
C1910       C  0.10518651  0.39878127  0.73857925    -0.30840
H1911       H  0.15207117  0.39603973  0.76483808     0.12880
H1912       H  0.07756326  0.40147944  0.74161019     0.13930
C1913       C  0.12461232  0.25184941  0.87360763    -0.15670
C1914       C  0.11592518  0.27643643  0.84921796    -0.30840
H1915       H  0.13386535  0.25893308  0.89924410     0.13360
H1916       H  0.10814644  0.26753438  0.82359321     0.13930
C1917       C  0.13722926  0.49430053  0.89722029    -0.15670
C1918       C  0.11906140  0.52240206  0.88669405    -0.30840
H1919       H  0.16045833  0.49751109  0.91254722     0.13360
H1920       H  0.09577797  0.51858415  0.87153687     0.13930
C1921       C  0.98149261  0.51317061  0.89109352    -0.15670
C1922       C  0.97622307  0.48188749  0.87628088    -0.30840
H1923       H  0.00323968  0.51691734  0.90842058     0.13360
H1924       H  0.95255965  0.47717335  0.86201405     0.13930
C1925       C  0.13180638  0.37838749  0.99218654    -0.15670
C1926       C  0.11315030  0.36940229  0.02048024    -0.30840
H1927       H  0.15729541  0.38973400  0.99533738     0.13360
H1928       H  0.08822661  0.35687665  0.01694685     0.13930
C1929       C  0.99375697  0.41726106  0.99550679    -0.15670
C1930       C  0.96597602  0.39581401  0.99752036    -0.30840
H1931       H  0.99665468  0.43816310  0.01425175     0.13360
H1932       H  0.96208709  0.37700313  0.97685423     0.13930
C1933       C  0.61060125  0.38567573  0.78872487    -0.15670
C1934       C  0.62382061  0.37958698  0.75696143    -0.30840
H1935       H  0.58578169  0.39849449  0.79026146     0.13360
H1936       H  0.64843119  0.36651157  0.75479207     0.13930
C1937       C  0.78593549  0.45754560  0.89402524    -0.15670
C1938       C  0.77973803  0.49210002  0.89273463    -0.30840
H1939       H  0.81195555  0.44854892  0.89909026     0.13360
H1940       H  0.75425308  0.50176015  0.88643403     0.13930
C1941       C  0.65336857  0.49901749  0.86233606    -0.15670
C1942       C  0.63227638  0.52298691  0.87689585    -0.30840
H1943       H  0.66900875  0.50733824  0.84013890     0.13360
H1944       H  0.61609003  0.51583485  0.89900996     0.13930
C1945       C  0.62468687  0.36945141  0.00451329    -0.15670
C1946       C  0.63965048  0.38879007  0.02932025    -0.30840
H1947       H  0.60910526  0.34682945  0.01224540     0.13360
H1948       H  0.65797822  0.40947577  0.02253537     0.13930
C1949       C  0.74582744  0.38011313  0.99365068    -0.15670
C1950       C  0.75532438  0.35600459  0.01745271    -0.30840
H1951       H  0.75797295  0.40594855  0.99400720     0.13360
H1952       H  0.74331567  0.33012469  0.01762360     0.13930
C1953       C  0.59460221  0.28295664  0.89955765    -0.15670
C1954       C  0.60791736  0.25248486  0.88732400    -0.30840
H1955       H  0.57583198  0.28218970  0.92053923     0.13360
H1956       H  0.62626420  0.25404150  0.86594018     0.13930
C1957       C  0.98189743  0.11657785  0.88464095    -0.15670
C1958       C  0.00949278  0.13846509  0.88484465    -0.30840
H1959       H  0.98416643  0.09094684  0.87281867     0.13360
H1960       H  0.00620777  0.16493005  0.89448432     0.13930
C1961       C  0.87816584  0.12864887  0.02585000    -0.15670
C1962       C  0.87186221  0.11181784  0.99570721    -0.30840
H1963       H  0.89302871  0.15295835  0.02496808     0.13360
H1964       H  0.85753616  0.08720976  0.99667338     0.13930
C1965       C  0.84786817  0.25742861  0.00757894    -0.15670
C1966       C  0.87093820  0.28404714  0.00914760    -0.30840
H1967       H  0.82589591  0.25622811  0.02507218     0.13360
H1968       H  0.89191413  0.28598744  0.99048822     0.13930
C1969       C  0.96877222  0.28679164  0.91113116    -0.15670
C1970       C  0.99558375  0.28904475  0.88973300    -0.30840
H1971       H  0.96204333  0.30885672  0.92742958     0.13360
H1972       H  0.00311790  0.26680143  0.87409540     0.13930
C1973       C  0.79857072  0.27902868  0.88990149    -0.15670
C1974       C  0.76431795  0.27615331  0.89268891    -0.30840
H1975       H  0.80996994  0.30487431  0.88528485     0.13360
H1976       H  0.75241456  0.25039603  0.89607924     0.13930
C1977       C  0.76224594  0.13187033  0.90434182    -0.15670
C1978       C  0.74125967  0.15836688  0.89533747    -0.30840
H1979       H  0.75217119  0.10872463  0.91798158     0.13360
H1980       H  0.75230120  0.18278511  0.88510720     0.13930
C1981       C  0.89342449  0.13954711  0.77431475    -0.15670
C1982       C  0.91505963  0.15900053  0.75421570    -0.30840
H1983       H  0.87663766  0.12005620  0.76271250     0.13360
H1984       H  0.93111473  0.17885939  0.76630185     0.13930
C1985       C  0.86381031  0.48619994  0.61160431    -0.15670
C1986       C  0.87522828  0.51717921  0.62405907    -0.30840
H1987       H  0.84230809  0.48597542  0.59355883     0.13360
H1988       H  0.89337481  0.51700321  0.64560860     0.13930
C1989       C  0.76103405  0.37474989  0.78480062    -0.15670
C1990       C  0.79068199  0.39252100  0.78094673    -0.30840
H1991       H  0.75389663  0.35349340  0.76763861     0.13360
H1992       H  0.79716700  0.41348887  0.79878246     0.13930
C1993       C  0.76160040  0.39680505  0.63397213    -0.15670
C1994       C  0.73171571  0.37970501  0.63786455    -0.30840
H1995       H  0.76237669  0.42242766  0.62095199     0.13360
H1996       H  0.73028176  0.35622781  0.65443235     0.13930
C1997       C  0.84389012  0.50525760  0.74662000    -0.15670
C1998       C  0.86132409  0.50304714  0.77643662    -0.30840
H1999       H  0.82221925  0.52294642  0.74390348     0.13360
H2000       H  0.88167543  0.48373288  0.77924122     0.13930
C2001       C  0.99226339  0.36023035  0.67432488    -0.15670
C2002       C  0.01234088  0.37543614  0.65017054    -0.30840
H2003       H  0.00109475  0.33708168  0.68865800     0.13360
H2004       H  0.00436664  0.39902292  0.63608557     0.13930
C2005       C  0.94613403  0.39087313  0.79200754    -0.15670
C2006       C  0.97969437  0.38591283  0.78368820    -0.30840
H2007       H  0.93735124  0.38786992  0.81879591     0.13360
H2008       H  0.98738666  0.38541923  0.75647762     0.13930
C2009       C  0.87507315  0.26955378  0.77695152    -0.15670
C2010       C  0.87646513  0.27733011  0.81093449    -0.30840
H2011       H  0.87742897  0.24257853  0.76840861     0.13360
H2012       H  0.87391447  0.30445487  0.81899768     0.13930
C2013       C  0.89603053  0.27247352  0.63873174    -0.15670
C2014       C  0.87697956  0.24277645  0.63947290    -0.30840
H2015       H  0.92315986  0.27128811  0.63195310     0.13360
H2016       H  0.85024015  0.24247449  0.64764567     0.13930
C2017       C  0.62722562  0.77756802  0.85892277    -0.15670
C2018       C  0.62200055  0.75130439  0.88256881    -0.30840
H2019       H  0.63130309  0.77057385  0.83188027     0.13360
H2020       H  0.61720873  0.75648187  0.90988276     0.13930
C2021       C  0.62737915  0.89337364  0.77376019    -0.15670
C2022       C  0.60305351  0.88653152  0.74967326    -0.30840
H2023       H  0.65423074  0.88895941  0.76755287     0.13360
H2024       H  0.57616985  0.88809296  0.75669867     0.13930
C2025       C  0.64414396  0.99889115  0.88143942    -0.15670
C2026       C  0.62850815  0.02990133  0.87471976    -0.30840
H2027       H  0.66727269  0.99912385  0.89726072     0.13360
H2028       H  0.60574261  0.02969161  0.85836316     0.13930
C2029       C  0.63529662  0.91930575  0.98986525    -0.15670
C2030       C  0.62403455  0.89682828  0.01453874    -0.30840
H2031       H  0.64476229  0.94516201  0.99719040     0.13360
H2032       H  0.61051038  0.87281670  0.00774445     0.13930
C2033       C  0.37906746  0.76997075  0.12822680    -0.15670
C2034       C  0.37712927  0.74515242  0.10330138    -0.30840
H2035       H  0.37210781  0.76296707  0.15491334     0.13360
H2036       H  0.38121938  0.75299722  0.07622653     0.13930
C2037       C  0.23739321  0.87036870  0.12477035    -0.15670
C2038       C  0.26280972  0.84746446  0.11948325    -0.30840
H2039       H  0.24218635  0.89730248  0.13241007     0.13360
H2040       H  0.25571925  0.82060051  0.11291370     0.13930
C2041       C  0.47563155  0.87553392  0.14261232    -0.15670
C2042       C  0.50341271  0.87379465  0.12194676    -0.30840
H2043       H  0.47809912  0.88641207  0.16851910     0.13360
H2044       H  0.50081091  0.86360328  0.09576571     0.13930
C2045       C  0.50546763  0.90382783  0.98791005    -0.15670
C2046       C  0.47759212  0.88366612  0.99385166    -0.30840
H2047       H  0.51472117  0.92139614  0.00793465     0.13360
H2048       H  0.46908291  0.86571085  0.97382156     0.13930
C2049       C  0.39582657  0.99210386  0.11028603    -0.15670
C2050       C  0.37516176  0.01612308  0.12377704    -0.30840
H2051       H  0.41902945  0.00064139  0.09659402     0.13360
H2052       H  0.35251583  0.00848191  0.13873665     0.13930
C2053       C  0.23752314  0.12554372  0.88906128    -0.15670
C2054       C  0.26488332  0.14389020  0.87810977    -0.30840
H2055       H  0.24098940  0.10181627  0.90483751     0.13360
H2056       H  0.26107370  0.16773494  0.86257125     0.13930
C2057       C  0.36047544  0.13206036  0.75580044    -0.15670
C2058       C  0.35217476  0.11736196  0.78682242    -0.30840
H2059       H  0.38200088  0.15036354  0.75415090     0.13360
H2060       H  0.32967538  0.10042830  0.78835665     0.13930
C2061       C  0.48030053  0.16192134  0.89313156    -0.15670
C2062       C  0.50863167  0.14809891  0.87981901    -0.30840
H2063       H  0.48193920  0.18422039  0.91041918     0.13360
H2064       H  0.50655304  0.12665205  0.86152031     0.13930
C2065       C  0.49429319  0.99554642  0.88841133    -0.15670
C2066       C  0.49107431  0.02994875  0.89469858    -0.30840
H2067       H  0.47211491  0.98083320  0.87924370     0.13360
H2068       H  0.51316916  0.04571432  0.90212290     0.13930
C2069       C  0.37872982  0.15876962  0.98946713    -0.15670
C2070       C  0.37548128  0.13616998  0.01685520    -0.30840
H2071       H  0.38957961  0.18477280  0.99343231     0.13360
H2072       H  0.36533305  0.11000104  0.01189245     0.13930
C2073       C  0.39038596  0.97940654  0.98096073    -0.15670
C2074       C  0.40398128  0.01055594  0.99015016    -0.30840
H2075       H  0.37785475  0.97734669  0.95572875     0.13360
H2076       H  0.41913570  0.01296890  0.01376056     0.13930
C2077       C  0.39529630  0.65898376  0.78100169    -0.15670
C2078       C  0.38131923  0.63828865  0.75680130    -0.30840
H2079       H  0.41344826  0.67945424  0.77280749     0.13360
H2080       H  0.36619364  0.61513761  0.76385237     0.13930
C2081       C  0.46348056  0.78337132  0.88159805    -0.15670
C2082       C  0.49789837  0.78494212  0.87857528    -0.30840
H2083       H  0.44970996  0.80725253  0.88772342     0.13360
H2084       H  0.51215683  0.76122101  0.87305628     0.13930
C2085       C  0.47721716  0.62261091  0.89069157    -0.15670
C2086       C  0.50587567  0.64271618  0.88740442    -0.30840
H2087       H  0.47809291  0.59554139  0.88216606     0.13360
H2088       H  0.50460518  0.67017607  0.89463174     0.13930
C2089       C  0.39287045  0.59736144  0.98941546    -0.15670
C2090       C  0.38896961  0.59972975  0.02460682    -0.30840
H2091       H  0.41344346  0.58067974  0.98030742     0.13360
H2092       H  0.40689034  0.58425051  0.04007875     0.13930
C2093       C  0.37418948  0.78187241  0.97206851    -0.15670
C2094       C  0.34524996  0.79853333  0.97900022    -0.30840
H2095       H  0.39693385  0.78439447  0.98837076     0.13360
H2096       H  0.32122901  0.79361158  0.96538485     0.13930
C2097       C  0.23738802  0.63558343  0.89196578    -0.15670
C2098       C  0.26103426  0.64802401  0.91414002    -0.30840
H2099       H  0.24401438  0.61771226  0.87129314     0.13360
H2100       H  0.25237097  0.66325131  0.93614613     0.13930
C2101       C  0.13337415  0.98443439  0.87461410    -0.15670
C2102       C  0.10428097  0.00291220  0.87112803    -0.30840
H2103       H  0.15790689  0.99824819  0.87324146     0.13360
H2104       H  0.08000395  0.98908708  0.86781838     0.13930
C2105       C  0.10398333  0.86701423  0.99719617    -0.15670
C2106       C  0.11723751  0.87672466  0.02792574    -0.30840
H2107       H  0.08243483  0.84870430  0.99677300     0.13360
H2108       H  0.13843844  0.89549039  0.02802680     0.13930
C2109       C  0.27906293  0.89410948  0.97403583    -0.15670
C2110       C  0.27489133  0.90265052  0.00769237    -0.30840
H2111       H  0.30500314  0.89114703  0.96386512     0.13360
H2112       H  0.24945240  0.90252364  0.01936256     0.13930
C2113       C  0.24521165  0.98778827  0.87399655    -0.15670
C2114       C  0.27393671  0.99375636  0.89207558    -0.30840
H2115       H  0.23778719  0.00626187  0.85345456     0.13360
H2116       H  0.28207735  0.97467870  0.91177303     0.13930
C2117       C  0.25312621  0.77541369  0.88565541    -0.15670
C2118       C  0.26342108  0.75152652  0.90997032    -0.30840
H2119       H  0.26487825  0.77475771  0.85995686     0.13360
H2120       H  0.25227236  0.75302636  0.93588592     0.13930
C2121       C  0.11504605  0.74343308  0.89128728    -0.15670
C2122       C  0.11187774  0.77210783  0.91083459    -0.30840
H2123       H  0.12878018  0.74496502  0.86660929     0.13360
H2124       H  0.10034871  0.76995685  0.93662146     0.13930
C2125       C  0.15407592  0.88329811  0.75245428    -0.15670
C2126       C  0.12838041  0.87345559  0.77440083    -0.30840
H2127       H  0.18025367  0.88484393  0.76215645     0.13360
H2128       H  0.10186088  0.87608680  0.76596349     0.13930
C2129       C  0.36295438  0.76805475  0.62442536    -0.15670
C2130       C  0.35300827  0.73504581  0.63319134    -0.30840
H2131       H  0.38400147  0.77193450  0.60606769     0.13360
H2132       H  0.33334530  0.73104604  0.65305478     0.13930
C2133       C  0.48056752  0.86319070  0.62794209    -0.15670
C2134       C  0.50913903  0.88209140  0.63504057    -0.30840
H2135       H  0.48295136  0.83860543  0.61414629     0.13360
H2136       H  0.50731094  0.90400453  0.65276809     0.13930
C2137       C  0.38918492  0.76718390  0.76356536    -0.15670
C2138       C  0.36699311  0.77291260  0.78978729    -0.30840
H2139       H  0.40999604  0.74859038  0.76710879     0.13360
H2140       H  0.34769834  0.79323884  0.78664873     0.13930
C2141       C  0.46879798  0.88178062  0.77209156    -0.15670
C2142       C  0.50131538  0.87095930  0.76936397    -0.30840
H2143       H  0.45839069  0.88932598  0.79717564     0.13360
H2144       H  0.51069471  0.85991042  0.74521689     0.13930
C2145       C  0.35399092  0.99769018  0.65249072    -0.15670
C2146       C  0.36381911  0.02869808  0.66570708    -0.30840
H2147       H  0.34084713  0.99594917  0.62759318     0.13360
H2148       H  0.37804066  0.03000082  0.69002990     0.13930
C2149       C  0.40029337  0.97392663  0.78346455    -0.15670
C2150       C  0.38130764  0.00350111  0.78316345    -0.30840
H2151       H  0.41092560  0.96428687  0.80796909     0.13360
H2152       H  0.36849680  0.01146195  0.75914810     0.13930
C2153       C  0.28114516  0.85174788  0.77320969    -0.15670
C2154       C  0.28871769  0.86387862  0.80493575    -0.30840
H2155       H  0.25487646  0.84575781  0.76568376     0.13360
H2156       H  0.31522193  0.86896507  0.81238140     0.13930
C2157       C  0.23660341  0.88986645  0.64023804    -0.15670
C2158       C  0.26658255  0.90810248  0.64445002    -0.30840
H2159       H  0.23616829  0.86139810  0.64284406     0.13360
H2160       H  0.26542950  0.93661286  0.64231631     0.13930
loop_ 
_geom_bond_atom_site_label_1 
_geom_bond_atom_site_label_2 
_geom_bond_distance 
_geom_bond_site_symmetry_2 
_ccdc_geom_bond_type 
O1            C9   1.250       .  A
O1          Co21   1.945       .  S
O2           C10   1.263       .  A
O2          Co22   1.971       .  S
O3           C11   1.293       .  A
O3          Co23   2.111       .  S
O4           C12   1.272       .  A
O4          Co24   2.054       .  S
O5           C11   1.264       .  A
O5          Co22   1.913       .  S
O6           C12   1.252       .  A
O6          Co21   1.960       .  S
O7           C10   1.270       .  A
O7          Co24   2.010       .  S
O8            C9   1.257       .  A
O8          Co23   2.008       .  S
C9         C2153   1.458       .  S
C10        C2141   1.454       .  S
C11        C2137   1.481       .  S
C12        C2149   1.481       .  S
O13          C26   1.276       .  A
O13         Co21   2.018       .  S
O14          C27   1.297       .  A
O14         Co22   2.091       .  S
O15          C28   1.280       .  A
O15         Co23   2.001       .  S
O16          C29   1.260       .  A
O16         Co24   1.979       .  S
O17          C29   1.265       .  A
O17         Co22   2.003       .  S
O18          C28   1.280       .  A
O18         Co21   2.034       .  S
O19          C26   1.259       .  A
O19         Co24   1.935       .  S
O20          C27   1.272       .  A
O20         Co23   1.901       .  S
Co21         O25   1.989       .  S
Co22         O25   1.986       .  S
Co23         O25   2.046       .  S
Co24         O25   2.068       .  S
C26        C2145   1.436       .  S
C27        C2129   1.469       .  S
C28        C2158   1.495       .  S
C29        C2133   1.473       .  S
O30          C38   1.283       .  A
O30         Co50   2.055       .  S
O31          C39   1.271       .  A
O31         Co51   2.006       .  S
O32          C40   1.258       .  A
O32         Co52   2.004       .  S
O33          C41   1.254       .  A
O33         Co53   2.024       .  S
O34          C40   1.277       .  A
O34         Co51   2.067       .  S
O35          C41   1.241       .  A
O35         Co50   1.947       .  S
O36          C39   1.258       .  A
O36         Co53   1.961       .  S
O37          C38   1.252       .  A
O37         Co52   1.893       .  S
C38        C2154   1.448       .  S
C39        C2122   1.454       .  S
C40        C2117   1.510       .  S
C41        C2126   1.479       .  S
O42          C55   1.271       .  A
O42         Co50   2.022       .  S
O43          C56   1.249       .  A
O43         Co51   1.993       .  S
O44          C57   1.251       .  A
O44         Co52   1.992       .  S
O45          C58   1.256       .  A
O45         Co53   2.009       .  S
O46          C58   1.253       .  A
O46         Co51   1.978       .  S
O47          C57   1.245       .  A
O47         Co50   1.973       .  S
O48          C55   1.261       .  A
O48         Co53   1.969       .  S
O49          C56   1.250       .  A
O49         Co52   1.986       .  S
Co50         O54   2.192       .  S
Co51         O54   2.108       .  S
Co52         O54   1.966       .  S
Co53         O54   2.153       .  S
C55        C2101   1.473       .  S
C56        C2109   1.472       .  S
C57        C2113   1.471       .  S
C58        C2105   1.483       .  S
O59          C67   1.266       .  A
O59         Co79   1.873       .  S
O60          C68   1.267       .  A
O60         Co80   1.990       .  S
O61          C69   1.260       .  A
O61         Co81   1.970       .  S
O62          C70   1.277       .  A
O62         Co82   2.038       .  S
O63          C69   1.268       .  A
O63         Co80   2.002       .  S
O64          C70   1.277       .  A
O64         Co79   2.001       .  S
O65          C68   1.267       .  A
O65         Co82   1.989       .  S
O66          C67   1.303       .  A
O66         Co81   2.159       .  S
C67        C2138   1.476       .  S
C68        C2098   1.463       .  S
C69        C2077   1.456       .  S
C70        C2118   1.507       .  S
O71          C84   1.259       .  A
O71         Co79   1.956       .  S
O72          C85   1.282       .  A
O72         Co80   2.040       .  S
O73          C86   1.271       .  A
O73         Co81   1.917       .  S
O74          C87   1.258       .  A
O74         Co82   1.951       .  S
O75          C87   1.281       .  A
O75         Co80   2.056       .  S
O76          C86   1.292       .  A
O76         Co79   2.127       .  S
O77          C84   1.252       .  A
O77         Co82   1.954       .  S
O78          C85   1.275       .  A
O78         Co81   1.984       .  S
Co79         O83   2.004       .  S
Co80         O83   2.053       .  S
Co81         O83   2.002       .  S
Co82         O83   2.029       .  S
C84        C2093   1.418       .  S
C85        C2085   1.497       .  S
C86        C2081   1.485       .  S
C87        C2089   1.483       .  S
O88          C96   1.261       .  A
O88        Co108   1.908       .  S
O89          C97   1.250       .  A
O89        Co109   1.962       .  S
O90          C98   1.280       .  A
O90        Co110   2.030       .  S
O91          C99   1.252       .  A
O91        Co111   1.975       .  S
O92          C98   1.264       .  A
O92        Co109   1.950       .  S
O93          C99   1.266       .  A
O93        Co108   1.995       .  S
O94          C97   1.267       .  A
O94        Co111   2.033       .  S
O95          C96   1.279       .  A
O95        Co110   2.046       .  S
C96        C2114   1.475   1_545  S
C97        C2069   1.484       .  S
C98        C2074   1.478       .  S
C99        C2054   1.470       .  S
O100        C113   1.282       .  A
O100       Co108   1.905       .  S
O101        C114   1.266       .  A
O101       Co109   1.989       .  S
O102        C115   1.257       .  A
O102       Co110   2.000       .  S
O103        C116   1.252       .  A
O103       Co111   1.963       .  S
O104        C116   1.289       .  A
O104       Co109   2.048       .  S
O105        C115   1.253       .  A
O105       Co108   1.986       .  S
O106        C113   1.243       .  A
O106       Co111   2.024       .  S
O107        C114   1.260       .  A
O107       Co110   2.009       .  S
Co108       O112   2.088       .  S
Co109       O112   1.975       .  S
Co110       O112   2.235       .  S
Co111       O112   2.235       .  S
C113       C2058   1.489       .  S
C114       C2066   1.479       .  S
C115       C2150   1.490       .  S
C116       C2061   1.455       .  S
O117        C125   1.271       .  A
O117       Co137   1.837       .  S
O118        C126   1.263       .  A
O118       Co138   1.981       .  S
O119        C127   1.292       .  A
O119       Co139   2.077       .  S
O120        C128   1.290       .  A
O120       Co140   2.064       .  S
O121        C127   1.275       .  A
O121       Co138   1.915       .  S
O122        C128   1.268       .  A
O122       Co137   1.957       .  S
O123        C126   1.267       .  A
O123       Co140   2.005       .  S
O124        C125   1.295       .  A
O124       Co139   2.064       .  S
C125       C2094   1.410   1_554  S
C126       C2041   1.474       .  S
C127       C2046   1.475   1_554  S
C128       C2033   1.493       .  S
O129        C142   1.262       .  A
O129       Co137   1.970       .  S
O130        C143   1.299       .  A
O130       Co138   2.111       .  S
O131        C144   1.255       .  A
O131       Co139   1.979       .  S
O132        C145   1.284       .  A
O132       Co140   2.014       .  S
O133        C145   1.266       .  A
O133       Co138   1.954       .  S
O134        C144   1.255       .  A
O134       Co137   2.005       .  S
O135        C142   1.275       .  A
O135       Co140   2.025       .  S
O136        C143   1.270   1_556  A
O136       Co139   1.889   1_556  S
Co137       O141   1.860       .  S
Co138       O141   1.960       .  S
Co139       O141   1.998       .  S
Co140       O141   2.009       .  S
C142       C2038   1.466       .  S
C143       C2073   1.471   1_554  S
C144       C2110   1.465       .  S
C145       C2049   1.451       .  S
O146        C154   1.263       .  A
O146       Co166   1.896       .  S
O147        C155   1.264       .  A
O147       Co167   1.995       .  S
O148        C156   1.283       .  A
O148       Co168   2.034       .  S
O149        C157   1.273       .  A
O149       Co169   2.038       .  S
O150        C156   1.280       .  A
O150       Co167   1.939       .  S
O151        C157   1.256       .  A
O151       Co166   1.969       .  S
O152        C155   1.268       .  A
O152       Co169   2.035       .  S
O153        C154   1.291       .  A
O153       Co168   2.058       .  S
C154       C2142   1.461       .  S
C155       C2025   1.509       .  S
C156       C2065   1.466       .  S
C157       C2021   1.482       .  S
O158        C171   1.261       .  A
O158       Co166   1.989       .  S
O159        C172   1.242       .  A
O159       Co167   1.969       .  S
O160        C173   1.256       .  A
O160       Co168   2.009       .  S
O161        C174   1.270       .  A
O161       Co169   1.976       .  S
O162        C174   1.272       .  A
O162       Co167   1.998       .  S
O163        C173   1.245       .  A
O163       Co166   1.980       .  S
O164        C171   1.264       .  A
O164       Co169   2.016       .  S
O165        C172   1.253       .  A
O165       Co168   1.993       .  S
Co166       O170   1.933       .  S
Co167       O170   1.993       .  S
Co168       O170   2.238       .  S
Co169       O170   2.106       .  S
C171       C2017   1.471       .  S
C172       C2045   1.478       .  S
C173       C2082   1.490       .  S
C174       C2029   1.449       .  S
O175        C183   1.298       .  A
O175       Co195   2.107       .  S
O176        C184   1.302       .  A
O176       Co196   2.098       .  S
O177        C185   1.261       .  A
O177       Co197   1.983       .  S
O178        C186   1.256       .  A
O178       Co198   1.965       .  S
O179        C185   1.258       .  A
O179       Co196   1.994       .  S
O180        C186   1.266       .  A
O180       Co195   2.000       .  S
O181        C184   1.256       .  A
O181       Co198   1.876       .  S
O182        C183   1.260       .  A
O182       Co197   1.858       .  S
C183       C2009   1.459       .  S
C184       C1997   1.462       .  S
C185       C2005   1.486       .  S
C186       C1990   1.462       .  S
O187        C200   1.250       .  A
O187       Co195   1.975       .  S
O188        C201   1.266       .  A
O188       Co196   1.983       .  S
O189        C202   1.254       .  A
O189       Co197   1.989       .  S
O190        C203   1.251       .  A
O190       Co198   1.974       .  S
O191        C203   1.253       .  A
O191       Co196   1.975       .  S
O192        C202   1.245       .  A
O192       Co195   1.941       .  S
O193        C200   1.254       .  A
O193       Co198   1.978       .  S
O194        C201   1.258       .  A
O194       Co197   1.968       .  S
Co195       O199   2.164       .  S
Co196       O199   2.171       .  S
Co197       O199   1.956       .  S
Co198       O199   1.950       .  S
C200       C1993   1.452       .  S
C201       C2001   1.449       .  S
C202       C2013   1.452       .  S
C203       C1985   1.473       .  S
O204        C212   1.288       .  A
O204       Co224   2.061       .  S
O205        C213   1.261       .  A
O205       Co225   1.986       .  S
O206        C214   1.263       .  A
O206       Co226   1.990       .  S
O207        C215   1.259       .  A
O207       Co227   1.991       .  S
O208        C214   1.262       .  A
O208       Co225   1.991       .  S
O209        C215   1.280       .  A
O209       Co224   2.042       .  S
O210        C213   1.264       .  A
O210       Co227   1.990       .  S
O211        C212   1.257       .  A
O211       Co226   1.955       .  S
C212       C2010   1.469       .  S
C213       C1977   1.466       .  S
C214       C1981   1.481       .  S
C215       C1973   1.480       .  S
O216        C229   1.276       .  A
O216       Co224   2.023       .  S
O217        C230   1.273       .  A
O217       Co225   2.049       .  S
O218        C231   1.284       .  A
O218       Co226   2.072       .  S
O219        C232   1.260       .  A
O219       Co227   1.980       .  S
O220        C232   1.271       .  A
O220       Co225   2.030       .  S
O221        C231   1.240       .  A
O221       Co224   1.873       .  S
O222        C229   1.262       .  A
O222       Co227   1.933       .  S
O223        C230   1.254       .  A
O223       Co226   1.956       .  S
Co224       O228   1.968       .  S
Co225       O228   2.087       .  S
Co226       O228   2.118       .  S
Co227       O228   1.991       .  S
C229       C1965   1.475   1_556  S
C230       C1957   1.495       .  S
C231       C1969   1.451       .  S
C232       C1962   1.494       .  S
O233        C241   1.268       .  A
O233       Co253   1.899       .  S
O234        C242   1.246       .  A
O234       Co254   1.937       .  S
O235        C243   1.256       .  A
O235       Co255   2.011       .  S
O236        C244   1.275       .  A
O236       Co256   2.012       .  S
O237        C243   1.247       .  A
O237       Co254   1.977       .  S
O238        C244   1.275       .  A
O238       Co253   2.000       .  S
O239        C242   1.284       .  A
O239       Co256   2.085       .  S
O240        C241   1.287       .  A
O240       Co255   2.070       .  S
C241       C1989   1.452       .  S
C242       C1953   1.492       .  S
C243       C1974   1.481       .  S
C244       C1933   1.488       .  S
O245        C258   1.261       .  A
O245       Co253   1.978       .  S
O246        C259   1.286       .  A
O246       Co254   2.061       .  S
O247        C260   1.254       .  A
O247       Co255   1.875       .  S
O248        C261   1.257       .  A
O248       Co256   1.968       .  S
O249        C261   1.269       .  A
O249       Co254   2.011       .  S
O250        C260   1.298       .  A
O250       Co253   2.127       .  S
O251        C258   1.266       .  A
O251       Co256   2.020       .  S
O252        C259   1.258       .  A
O252       Co255   1.954       .  S
Co253       O257   2.000       .  S
Co254       O257   2.019       .  S
Co255       O257   1.991       .  S
Co256       O257   2.061       .  S
C258       C1941   1.484       .  S
C259       C1949   1.478       .  S
C260       C1937   1.463       .  S
C261       C1945   1.458   1_556  S
O262        C270   1.276       .  A
O262       Co282   1.891       .  S
O263        C271   1.266       .  A
O263       Co283   1.972       .  S
O264        C272   1.272       .  A
O264       Co284   1.888   1_655  S
O265        C273   1.268       .  A
O265       Co285   2.013       .  S
O266        C272   1.300   1_455  A
O266       Co283   2.087       .  S
O267        C273   1.269       .  A
O267       Co282   2.007       .  S
O268        C271   1.264       .  A
O268       Co285   1.983       .  S
O269        C270   1.299       .  A
O269       Co284   2.092       .  S
C270       C2006   1.476   1_455  S
C271       C1917   1.463       .  S
C272       C1922   1.465       .  S
C273       C1909   1.500       .  S
O274        C287   1.275       .  A
O274       Co282   1.995       .  S
O275        C288   1.267       .  A
O275       Co283   1.936       .  S
O276        C289   1.255   1_655  A
O276       Co284   1.963   1_655  S
O277        C290   1.264       .  A
O277       Co285   1.988       .  S
O278        C290   1.266       .  A
O278       Co283   1.997       .  S
O279        C289   1.244       .  A
O279       Co282   1.960       .  S
O280        C287   1.274       .  A
O280       Co285   2.010       .  S
O281        C288   1.293       .  A
O281       Co284   2.095       .  S
Co282       O286   1.905       .  S
Co283       O286   2.004       .  S
Co284       O286   2.096       .  S
Co285       O286   2.061       .  S
C287       C1914   1.474       .  S
C288       C1929   1.498   1_455  S
C289       C1970   1.452   1_455  S
C290       C1925   1.477       .  S
O291        C299   1.241       .  A
O291       Co311   1.955       .  S
O292        C300   1.269       .  A
O292       Co312   1.993       .  S
O293        C301   1.252       .  A
O293       Co313   1.990       .  S
O294        C302   1.260       .  A
O294       Co314   1.990       .  S
O295        C301   1.254       .  A
O295       Co312   2.006       .  S
O296        C302   1.263       .  A
O296       Co311   2.005       .  S
O297        C300   1.271       .  A
O297       Co314   1.984       .  S
O298        C299   1.253       .  A
O298       Co313   1.987       .  S
C299       C1966   1.454       .  S
C300       C1905   1.463       .  S
C301       C1930   1.492   1_554  S
C302       C1889   1.467       .  S
O303        C316   1.250       .  A
O303       Co311   1.961       .  S
O304        C317   1.276       .  A
O304       Co312   1.899       .  S
O305        C318   1.301       .  A
O305       Co313   2.095       .  S
O306        C319   1.258       .  A
O306       Co314   1.989       .  S
O307        C319   1.265       .  A
O307       Co312   2.009       .  S
O308        C318   1.260       .  A
O308       Co311   1.894       .  S
O309        C316   1.272       .  A
O309       Co314   2.041       .  S
O310        C317   1.295       .  A
O310       Co313   2.057       .  S
Co311       O315   1.927       .  S
Co312       O315   1.956       .  S
Co313       O315   2.249       .  S
Co314       O315   2.110       .  S
C316       C1894   1.475       .  S
C317       C1902   1.464       .  S
C318       C1950   1.481       .  S
C319       C1897   1.481       .  S
O320        C328   1.250       .  A
O320       Co340   1.967       .  S
O321        C329   1.266       .  A
O321       Co341   1.963       .  S
O322        C330   1.264       .  A
O322       Co342   1.992       .  S
O323        C331   1.262       .  A
O323       Co343   1.977       .  S
O324        C330   1.284       .  A
O324       Co341   2.033       .  S
O325        C331   1.273       .  A
O325       Co340   2.004       .  S
O326        C329   1.264       .  A
O326       Co343   2.044       .  S
O327        C328   1.261       .  A
O327       Co342   1.975       .  S
C328       C1938   1.474       .  S
C329       C1885   1.478   1_556  S
C330       C1901   1.466       .  S
C331       C1873   1.476       .  S
O332        C345   1.248       .  A
O332       Co340   1.975       .  S
O333        C346   1.247       .  A
O333       Co341   1.993       .  S
O334        C347   1.282       .  A
O334       Co342   2.043       .  S
O335        C348   1.293       .  A
O335       Co343   2.097       .  S
O336        C348   1.260       .  A
O336       Co341   1.879       .  S
O337        C347   1.268       .  A
O337       Co340   1.905       .  S
O338        C345   1.260       .  A
O338       Co343   2.020       .  S
O339        C346   1.249       .  A
O339       Co342   1.975       .  S
Co340       O344   1.949       .  S
Co341       O344   1.948       .  S
Co342       O344   2.145       .  S
Co343       O344   2.185       .  S
C345       C1878   1.484       .  S
C346       C1921   1.474       .  S
C347       C1998   1.460       .  S
C348       C1881   1.467       .  S
O349        C357   1.262       .  A
O349       Co369   1.999       .  S
O350        C358   1.266       .  A
O350       Co370   1.887       .  S
O351        C359   1.259       .  A
O351       Co371   1.985       .  S
O352        C360   1.301       .  A
O352       Co372   2.073       .  S
O353        C359   1.265       .  A
O353       Co370   1.981       .  S
O354        C360   1.268       .  A
O354       Co369   1.899       .  S
O355        C358   1.306       .  A
O355       Co372   2.120       .  S
O356        C357   1.273       .  A
O356       Co371   2.054       .  S
C357       C1866   1.494       .  S
C358       C1854   1.493       .  S
C359       C1858   1.465       .  S
C360       C1849   1.468       .  S
O361        C374   1.237       .  A
O361       Co369   1.957       .  S
O362        C375   1.269       .  A
O362       Co370   1.989       .  S
O363        C376   1.259       .  A
O363       Co371   1.967       .  S
O364        C377   1.253       .  A
O364       Co372   1.997       .  S
O365        C377   1.246       .  A
O365       Co370   1.970       .  S
O366        C376   1.265       .  A
O366       Co369   1.993       .  S
O367        C374   1.256       .  A
O367       Co372   2.020       .  S
O368        C375   1.268       .  A
O368       Co371   1.988       .  S
Co369       O373   1.903       .  S
Co370       O373   1.920       .  S
Co371       O373   2.112       .  S
Co372       O373   2.266       .  S
C374       C1841   1.475       .  S
C375       C1861   1.462       .  S
C376       C1869   1.452       .  S
C377       C1845   1.478       .  S
O378        C386   1.285       .  A
O378       Co398   2.055       .  S
O379        C387   1.260       .  A
O379       Co399   1.979       .  S
O380        C388   1.259       .  A
O380       Co400   1.849       .  S
O381        C389   1.267       .  A
O381       Co401   1.986       .  S
O382        C388   1.289       .  A
O382       Co399   2.104       .  S
O383        C389   1.270       .  A
O383       Co398   2.011       .  S
O384        C387   1.265       .  A
O384       Co401   2.022       .  S
O385        C386   1.270       .  A
O385       Co400   1.969       .  S
C386       C1833   1.488       .  S
C387       C1825   1.473       .  S
C388       C1822   1.447       .  S
C389       C1829   1.475       .  S
O390        C403   1.265       .  A
O390       Co398   1.967       .  S
O391        C404   1.264       .  A
O391       Co399   1.895       .  S
O392        C405   1.246       .  A
O392       Co400   1.972       .  S
O393        C406   1.281       .  A
O393       Co401   2.054       .  S
O394        C406   1.265       .  A
O394       Co399   1.965       .  S
O395        C405   1.262       .  A
O395       Co398   1.998       .  S
O396        C403   1.278       .  A
O396       Co401   2.038       .  S
O397        C404   1.299       .  A
O397       Co400   2.117       .  S
Co398       O402   2.020       .  S
Co399       O402   1.989       .  S
Co400       O402   1.991       .  S
Co401       O402   2.056       .  S
C403       C1837   1.482       .  S
C404       C1818   1.476       .  S
C405       C1857   1.465       .  S
C406       C1813   1.494       .  S
O407        C415   1.287       .  A
O407       Co427   2.069       .  S
O408        C416   1.265       .  A
O408       Co428   1.993       .  S
O409        C417   1.255       .  A
O409       Co429   1.876       .  S
O410        C418   1.255       .  A
O410       Co430   1.950       .  S
O411        C417   1.297       .  A
O411       Co428   2.125       .  S
O412        C418   1.269       .  A
O412       Co427   2.009       .  S
O413        C416   1.250       .  A
O413       Co430   1.959       .  S
O414        C415   1.265       .  A
O414       Co429   1.964       .  S
C415       C1865   1.494       .  S
C416       C1797   1.460       .  S
C417       C1817   1.467       .  S
C418       C1810   1.456       .  S
O419        C432   1.257       .  A
O419       Co427   1.968       .  S
O420        C433   1.266       .  A
O420       Co428   1.911       .  S
O421        C434   1.251       .  A
O421       Co429   1.981       .  S
O422        C435   1.277       .  A
O422       Co430   2.036       .  S
O423        C435   1.264       .  A
O423       Co428   1.976       .  S
O424        C434   1.247       .  A
O424       Co427   1.955       .  S
O425        C432   1.275       .  A
O425       Co430   2.043       .  S
O426        C433   1.293       .  A
O426       Co429   2.095       .  S
Co427       O431   2.030       .  S
Co428       O431   2.019       .  S
Co429       O431   2.011       .  S
Co430       O431   2.054       .  S
C432       C1801   1.491       .  S
C433       C1789   1.475       .  S
C434       C1805   1.446       .  S
C435       C1793   1.489       .  S
O436        C444   1.285       .  A
O436       Co456   2.063       .  S
O437        C445   1.264       .  A
O437       Co457   2.016       .  S
O438        C446   1.268   1_655  A
O438       Co458   1.888   1_655  S
O439        C447   1.262       .  A
O439       Co459   1.972       .  S
O440        C446   1.290       .  A
O440       Co457   2.095       .  S
O441        C447   1.268       .  A
O441       Co456   2.002       .  S
O442        C445   1.258       .  A
O442       Co459   1.991       .  S
O443        C444   1.265       .  A
O443       Co458   1.964       .  S
C444       C1853   1.492   1_455  S
C445       C1773   1.478       .  S
C446       C1778   1.462   1_455  S
C447       C1766   1.462       .  S
O448        C461   1.262       .  A
O448       Co456   1.962       .  S
O449        C462   1.264       .  A
O449       Co457   1.874       .  S
O450        C463   1.270       .  A
O450       Co458   2.034   1_655  S
O451        C464   1.282       .  A
O451       Co459   2.058       .  S
O452        C464   1.264       .  A
O452       Co457   1.965       .  S
O453        C463   1.257   1_455  A
O453       Co456   1.974       .  S
O454        C461   1.273       .  A
O454       Co459   2.019       .  S
O455        C462   1.294       .  A
O455       Co458   2.089       .  S
Co456       O460   2.034       .  S
Co457       O460   1.989       .  S
Co458       O460   1.994       .  S
Co459       O460   2.050       .  S
C461       C1770   1.471       .  S
C462       C1785   1.445   1_455  S
C463       C1834   1.491       .  S
C464       C1781   1.497       .  S
O465        C473   1.265       .  A
O465       Co485   1.904       .  S
O466        C474   1.249       .  A
O466       Co486   1.953       .  S
O467        C475   1.271       .  A
O467       Co487   2.016       .  S
O468        C476   1.254       .  A
O468       Co488   2.006       .  S
O469        C475   1.263       .  A
O469       Co486   1.993       .  S
O470        C476   1.247       .  A
O470       Co485   1.995       .  S
O471        C474   1.263       .  A
O471       Co488   2.027       .  S
O472        C473   1.286       .  A
O472       Co487   2.054       .  S
C473       C1806   1.441       .  S
C474       C1757   1.481       .  S
C475       C1761   1.486       .  S
C476       C1749   1.478       .  S
O477        C490   1.270       .  A
O477       Co485   1.998       .  S
O478        C491   1.253       .  A
O478       Co486   1.991       .  S
O479        C492   1.262   1_565  A
O479       Co487   1.908   1_565  S
O480        C493   1.270       .  A
O480       Co488   2.015       .  S
O481        C493   1.266       .  A
O481       Co486   1.969       .  S
O482        C492   1.294       .  A
O482       Co485   2.091       .  S
O483        C490   1.270       .  A
O483       Co488   1.992       .  S
O484        C491   1.242       .  A
O484       Co487   1.988       .  S
Co485       O489   2.014       .  S
Co486       O489   2.074       .  S
Co487       O489   2.021       .  S
Co488       O489   2.112       .  S
C490       C1746   1.474       .  S
C491       C1777   1.464   1_545  S
C492       C1850   1.462   1_545  S
C493       C1753   1.469       .  S
O494        C502   1.260       .  A
O494       Co514   1.871       .  S
O495        C503   1.242       .  A
O495       Co515   1.943       .  S
O496        C504   1.256       .  A
O496       Co516   1.993       .  S
O497        C505   1.283       .  A
O497       Co517   2.064       .  S
O498        C504   1.251       .  A
O498       Co515   1.951       .  S
O499        C505   1.258       .  A
O499       Co514   1.959       .  S
O500        C503   1.276       .  A
O500       Co517   2.071       .  S
O501        C502   1.286       .  A
O501       Co516   2.097       .  S
C502       C1821   1.440       .  S
C503       C1737   1.494       .  S
C504       C1786   1.449       .  S
C505       C1729   1.488       .  S
O506        C519   1.251       .  A
O506       Co514   1.970       .  S
O507        C520   1.278       .  A
O507       Co515   2.035       .  S
O508        C521   1.262       .  A
O508       Co516   1.869       .  S
O509        C522   1.260       .  A
O509       Co517   1.961       .  S
O510        C522   1.276       .  A
O510       Co515   2.023       .  S
O511        C521   1.300       .  A
O511       Co514   2.118       .  S
O512        C519   1.260       .  A
O512       Co517   2.005       .  S
O513        C520   1.271       .  A
O513       Co516   1.968       .  S
Co514       O518   1.977       .  S
Co515       O518   1.999       .  S
Co516       O518   2.003       .  S
Co517       O518   2.078       .  S
C519       C1734   1.463       .  S
C520       C1762   1.485   1_565  S
C521       C1790   1.464       .  S
C522       C1741   1.462       .  S
O523        C531   1.280       .  A
O523       Co543   2.045       .  S
O524        C532   1.264       .  A
O524       Co544   2.010       .  S
O525        C533   1.270       .  A
O525       Co545   1.872       .  S
O526        C534   1.255       .  A
O526       Co546   1.946       .  S
O527        C533   1.282       .  A
O527       Co544   2.086       .  S
O528        C534   1.267       .  A
O528       Co543   2.008       .  S
O529        C532   1.262       .  A
O529       Co546   1.975       .  S
O530        C531   1.267       .  A
O530       Co545   1.974       .  S
C531       C1726   1.492       .  S
C532       C1714   1.474       .  S
C533       C1717   1.453       .  S
C534       C1721   1.453       .  S
O535        C548   1.261       .  A
O535       Co543   1.959       .  S
O536        C549   1.272       .  A
O536       Co544   1.887       .  S
O537        C550   1.263       .  A
O537       Co545   2.005       .  S
O538        C551   1.277       .  A
O538       Co546   2.019       .  S
O539        C551   1.274       .  A
O539       Co544   1.980       .  S
O540        C550   1.263       .  A
O540       Co543   1.984       .  S
O541        C548   1.278       .  A
O541       Co546   2.020       .  S
O542        C549   1.285       .  A
O542       Co545   2.071       .  S
Co543       O547   2.047       .  S
Co544       O547   1.996       .  S
Co545       O547   1.990       .  S
Co546       O547   2.024       .  S
C548       C1754   1.468       .  S
C549       C1709   1.454       .  S
C550       C1774   1.479       .  S
C551       C1706   1.497       .  S
O552        C560   1.276       .  A
O552       Co572   2.031       .  S
O553        C561   1.238       .  A
O553       Co573   1.973       .  S
O554        C562   1.257       .  A
O554       Co574   1.958       .  S
O555        C563   1.255       .  A
O555       Co575   1.996       .  S
O556        C562   1.277       .  A
O556       Co573   2.046       .  S
O557        C563   1.249       .  A
O557       Co572   1.993       .  S
O558        C561   1.247       .  A
O558       Co575   1.991       .  S
O559        C560   1.257       .  A
O559       Co574   1.922       .  S
C560       C1702   1.460       .  S
C561       C1689   1.473       .  S
C562       C1697   1.486       .  S
C563       C1694   1.488       .  S
O564        C577   1.271       .  A
O564       Co572   1.870       .  S
O565        C578   1.262       .  A
O565       Co573   1.982       .  S
O566        C579   1.263       .  A
O566       Co574   2.012       .  S
O567        C580   1.305       .  A
O567       Co575   2.094       .  S
O568        C580   1.278       .  A
O568       Co573   1.897       .  S
O569        C579   1.261       .  A
O569       Co572   1.975       .  S
O570        C577   1.304       .  A
O570       Co575   2.105       .  S
O571        C578   1.271       .  A
O571       Co574   2.021       .  S
Co572       O576   1.973       .  S
Co573       O576   1.931       .  S
Co574       O576   2.074       .  S
Co575       O576   2.216       .  S
C577       C1750   1.476       .  S
C578       C1685   1.489       .  S
C579       C1802   1.491       .  S
C580       C1682   1.482       .  S
O581        C589   1.254       .  A
O581       Co601   1.964       .  S
O582        C590   1.261       .  A
O582       Co602   1.948       .  S
O583        C591   1.292       .  A
O583       Co603   2.108       .  S
O584        C592   1.266       .  A
O584       Co604   2.023       .  S
O585        C591   1.257       .  A
O585       Co602   1.898       .  S
O586        C592   1.262       .  A
O586       Co601   1.975       .  S
O587        C590   1.285       .  A
O587       Co604   2.048       .  S
O588        C589   1.267       .  A
O588       Co603   2.030       .  S
C589       C1670   1.473       .  S
C590       C1665   1.465       .  S
C591       C1674   1.468       .  S
C592       C1677   1.487       .  S
O593        C606   1.278       .  A
O593       Co601   2.030       .  S
O594        C607   1.292       .  A
O594       Co602   2.088       .  S
O595        C608   1.262       .  A
O595       Co603   1.957       .  S
O596        C609   1.250       .  A
O596       Co604   1.972       .  S
O597        C609   1.256       .  A
O597       Co602   1.988       .  S
O598        C608   1.281       .  A
O598       Co601   2.044       .  S
O599        C606   1.263       .  A
O599       Co604   1.964       .  S
O600        C607   1.269       .  A
O600       Co603   1.890       .  S
Co601       O605   2.017       .  S
Co602       O605   2.013       .  S
Co603       O605   2.017       .  S
Co604       O605   2.039       .  S
C606       C1846   1.479       .  S
C607       C2037   1.473       .  S
C608       C2106   1.482       .  S
C609       C1765   1.470       .  S
O610        C618   1.238       .  A
O610       Co630   1.943       .  S
O611        C619   1.268       .  A
O611       Co631   2.009       .  S
O612        C620   1.242       .  A
O612       Co632   1.973       .  S
O613        C621   1.262       .  A
O613       Co633   1.954       .  S
O614        C620   1.249       .  A
O614       Co631   1.982       .  S
O615        C621   1.265       .  A
O615       Co630   1.996       .  S
O616        C619   1.273       .  A
O616       Co633   1.993       .  S
O617        C618   1.261       .  A
O617       Co632   2.039       .  S
C618       C1662   1.479       .  S
C619       C1653   1.480       .  S
C620       C1666   1.466       .  S
C621       C1657   1.451       .  S
O622        C635   1.263       .  A
O622       Co630   1.972       .  S
O623        C636   1.275       .  A
O623       Co631   1.888       .  S
O624        C637   1.284       .  A
O624       Co632   2.034       .  S
O625        C638   1.262       .  A
O625       Co633   1.968       .  S
O626        C638   1.263       .  A
O626       Co631   1.995       .  S
O627        C637   1.272       .  A
O627       Co630   1.932       .  S
O628        C635   1.273       .  A
O628       Co633   2.041       .  S
O629        C636   1.299       .  A
O629       Co632   2.069       .  S
Co630       O634   1.943       .  S
Co631       O634   1.930       .  S
Co632       O634   2.258       .  S
Co633       O634   2.067       .  S
C635       C1645   1.475       .  S
C636       C1769   1.469       .  S
C637       C1830   1.476       .  S
C638       C1649   1.477       .  S
O639        C647   1.265       .  A
O639       Co659   2.022       .  S
O640        C648   1.285       .  A
O640       Co660   2.059       .  S
O641        C649   1.258       .  A
O641       Co661   1.969       .  S
O642        C650   1.255       .  A
O642       Co662   1.873       .  S
O643        C649   1.264       .  A
O643       Co660   2.019       .  S
O644        C650   1.291       .  A
O644       Co659   2.102       .  S
O645        C648   1.263       .  A
O645       Co662   1.967       .  S
O646        C647   1.257       .  A
O646       Co661   1.966       .  S
C647       C1637   1.482       .  S
C648       C1693   1.488       .  S
C649       C1641   1.482       .  S
C650       C1633   1.448       .  S
O651        C664   1.267       .  A
O651       Co659   1.888       .  S
O652        C665   1.262       .  A
O652       Co660   1.962       .  S
O653        C666   1.278       .  A
O653       Co661   2.042       .  S
O654        C667   1.252       .  A
O654       Co662   1.990       .  S
O655        C667   1.256       .  A
O655       Co660   1.980       .  S
O656        C666   1.267       .  A
O656       Co659   1.974       .  S
O657        C664   1.297       .  A
O657       Co662   2.090       .  S
O658        C665   1.279       .  A
O658       Co661   2.031       .  S
Co659       O663   2.024       .  S
Co660       O663   2.061       .  S
Co661       O663   2.032       .  S
Co662       O663   2.006       .  S
C664       C1890   1.467       .  S
C665       C1842   1.477       .  S
C666       C1961   1.494       .  S
C667       C1745   1.478       .  S
O668        C676   1.289       .  A
O668       Co688   2.116       .  S
O669        C677   1.267       .  A
O669       Co689   2.027       .  S
O670        C678   1.259       .  A
O670       Co690   1.962       .  S
O671        C679   1.259       .  A
O671       Co691   1.970       .  S
O672        C678   1.274       .  A
O672       Co689   2.017       .  S
O673        C679   1.253       .  A
O673       Co688   1.981       .  S
O674        C677   1.255       .  A
O674       Co691   1.963       .  S
O675        C676   1.266       .  A
O675       Co690   1.917       .  S
C676       C1622   1.491       .  S
C677       C1618   1.480       .  S
C678       C1625   1.467       .  S
C679       C1629   1.458       .  S
O680        C693   1.274       .  A
O680       Co688   1.985       .  S
O681        C694   1.259       .  A
O681       Co689   1.970       .  S
O682        C695   1.298       .  A
O682       Co690   2.101       .  S
O683        C696   1.280       .  A
O683       Co691   2.040       .  S
O684        C696   1.265       .  A
O684       Co689   1.965       .  S
O685        C695   1.266       .  A
O685       Co688   1.904       .  S
O686        C693   1.279       .  A
O686       Co691   2.004       .  S
O687        C694   1.269       .  A
O687       Co690   2.014       .  S
Co688       O692   2.045       .  S
Co689       O692   2.075       .  S
Co690       O692   2.005       .  S
Co691       O692   2.007       .  S
C693       C1826   1.492       .  S
C694       C1877   1.477       .  S
C695       C1986   1.471       .  S
C696       C1730   1.485       .  S
O697        C705   1.258       .  A
O697       Co717   2.004       .  S
O698        C706   1.300       .  A
O698       Co718   2.057       .  S
O699        C707   1.261       .  A
O699       Co719   1.879       .  S
O700        C708   1.251       .  A
O700       Co720   1.991       .  S
O701        C707   1.296       .  A
O701       Co718   2.087       .  S
O702        C708   1.265       .  A
O702       Co717   2.036       .  S
O703        C706   1.275       .  A
O703       Co720   1.903       .  S
O704        C705   1.247       .  A
O704       Co719   1.994       .  S
C705       C1606   1.453       .  S
C706       C1609   1.466       .  S
C707       C1613   1.456       .  S
C708       C1601   1.488       .  S
O709        C722   1.257       .  A
O709       Co717   1.958       .  S
O710        C723   1.257       .  A
O710       Co718   2.001       .  S
O711        C724   1.264       .  A
O711       Co719   2.005       .  S
O712        C725   1.253       .  A
O712       Co720   1.982       .  S
O713        C725   1.254       .  A
O713       Co718   1.974       .  S
O714        C724   1.264       .  A
O714       Co717   1.979       .  S
O715        C722   1.278       .  A
O715       Co720   2.023       .  S
O716        C723   1.251       .  A
O716       Co719   1.983       .  S
Co717       O721   2.124       .  S
Co718       O721   2.251       .  S
Co719       O721   1.929       .  S
Co720       O721   1.957       .  S
C722       C2053   1.474       .  S
C723       C1958   1.483       .  S
C724       C2102   1.478       .  S
C725       C1913   1.486       .  S
O726        C734   1.273       .  A
O726       Co746   2.037       .  S
O727        C735   1.275       .  A
O727       Co747   2.017       .  S
O728        C736   1.250       .  A
O728       Co748   1.929       .  S
O729        C737   1.267       .  A
O729       Co749   1.907       .  S
O730        C736   1.266       .  A
O730       Co747   2.014       .  S
O731        C737   1.284       .  A
O731       Co746   2.078       .  S
O732        C735   1.269       .  A
O732       Co749   1.969       .  S
O733        C734   1.257       .  A
O733       Co748   1.969       .  S
C734       C1597   1.490       .  S
C735       C1690   1.471       .  S
C736       C1634   1.450       .  S
C737       C1589   1.467       .  S
O738        C751   1.275       .  A
O738       Co746   1.926       .  S
O739        C752   1.262       .  A
O739       Co747   1.957       .  S
O740        C753   1.274       .  A
O740       Co748   1.993       .  S
O741        C754   1.263       .  A
O741       Co749   1.995       .  S
O742        C754   1.259       .  A
O742       Co747   1.977       .  S
O743        C753   1.271       .  A
O743       Co746   1.977       .  S
O744        C751   1.288       .  A
O744       Co749   2.081       .  S
O745        C752   1.275       .  A
O745       Co748   2.017       .  S
Co746       O750   2.022       .  S
Co747       O750   2.065       .  S
Co748       O750   2.004       .  S
Co749       O750   1.984       .  S
C751       C1593   1.481       .  S
C752       C1893   1.460       .  S
C753       C1946   1.464       .  S
C754       C1585   1.464       .  S
O755        C763   1.255       .  A
O755       Co775   1.957       .  S
O756        C764   1.257       .  A
O756       Co776   1.974       .  S
O757        C765   1.297       .  A
O757       Co777   2.087       .  S
O758        C766   1.301       .  A
O758       Co778   2.102       .  S
O759        C765   1.273       .  A
O759       Co776   1.894       .  S
O760        C766   1.267       .  A
O760       Co775   1.862       .  S
O761        C764   1.268       .  A
O761       Co778   2.019       .  S
O762        C763   1.266       .  A
O762       Co777   2.015       .  S
C763       C1582   1.467       .  S
C764       C1573   1.475       .  S
C765       C1713   1.471       .  S
C766       C1610   1.463       .  S
O767        C780   1.251       .  A
O767       Co775   1.992       .  S
O768        C781   1.255       .  A
O768       Co776   1.998       .  S
O769        C782   1.257       .  A
O769       Co777   1.965       .  S
O770        C783   1.267       .  A
O770       Co778   1.988       .  S
O771        C783   1.270       .  A
O771       Co776   2.001       .  S
O772        C782   1.269       .  A
O772       Co775   1.991       .  S
O773        C780   1.261       .  A
O773       Co778   2.003       .  S
O774        C781   1.250       .  A
O774       Co777   1.960       .  S
Co775       O779   1.953       .  S
Co776       O779   1.976       .  S
Co777       O779   2.134       .  S
Co778       O779   2.134       .  S
C780       C1910   1.495       .  S
C781       C1577   1.468       .  S
C782       C2002   1.463       .  S
C783       C1569   1.460       .  S
O784        C792   1.257       .  A
O784       Co804   1.994       .  S
O785        C793   1.273       .  A
O785       Co805   1.840       .  S
O786        C794   1.278       .  A
O786       Co806   2.038       .  S
O787        C795   1.304       .  A
O787       Co807   2.104       .  S
O788        C794   1.262       .  A
O788       Co805   1.963       .  S
O789        C795   1.265       .  A
O789       Co804   1.907       .  S
O790        C793   1.305       .  A
O790       Co807   2.103       .  S
O791        C792   1.259       .  A
O791       Co806   2.008       .  S
C792       C1561   1.482       .  S
C793       C1658   1.453       .  S
C794       C1566   1.478       .  S
C795       C1549   1.486       .  S
O796        C809   1.300       .  A
O796       Co804   2.073       .  S
O797        C810   1.275       .  A
O797       Co805   2.012       .  S
O798        C811   1.267       .  A
O798       Co806   1.969       .  S
O799        C812   1.264       .  A
O799       Co807   2.014       .  S
O800        C812   1.256       .  A
O800       Co805   2.005       .  S
O801        C811   1.278       .  A
O801       Co804   2.015       .  S
O802        C809   1.278       .  A
O802       Co807   1.873       .  S
O803        C810   1.260       .  A
O803       Co806   1.970       .  S
Co804       O808   1.976       .  S
Co805       O808   1.910       .  S
Co806       O808   2.036       .  S
Co807       O808   2.032       .  S
C809       C1553   1.460       .  S
C810       C1906   1.461       .  S
C811       C1926   1.477       .  S
C812       C1557   1.503       .  S
O813        C821   1.269       .  A
O813       Co833   1.913       .  S
O814        C822   1.254       .  A
O814       Co834   1.938       .  S
O815        C823   1.272       .  A
O815       Co835   2.028       .  S
O816        C824   1.281       .  A
O816       Co836   2.041       .  S
O817        C823   1.254       .  A
O817       Co834   1.945       .  S
O818        C824   1.270       .  A
O818       Co833   1.976       .  S
O819        C822   1.263       .  A
O819       Co836   2.004       .  S
O820        C821   1.289       .  A
O820       Co835   2.096       .  S
C821       C1545   1.473       .  S
C822       C1537   1.444       .  S
C823       C1533   1.465       .  S
C824       C1541   1.489       .  S
O825        C838   1.266       .  A
O825       Co833   2.000       .  S
O826        C839   1.274       .  A
O826       Co834   2.005       .  S
O827        C840   1.276       .  A
O827       Co835   1.917       .  S
O828        C841   1.266       .  A
O828       Co836   1.961       .  S
O829        C841   1.272       .  A
O829       Co834   1.998       .  S
O830        C840   1.293       .  A
O830       Co833   2.097       .  S
O831        C838   1.256       .  A
O831       Co836   1.968       .  S
O832        C839   1.276       .  A
O832       Co835   2.001       .  S
Co833       O837   1.985       .  S
Co834       O837   1.996       .  S
Co835       O837   2.016       .  S
Co836       O837   2.051       .  S
C838       C1525   1.458       .  S
C839       C1529   1.490       .  S
C840       C1594   1.485       .  S
C841       C1554   1.449       .  S
O842        C850   1.288       .  A
O842       Co862   2.099       .  S
O843        C851   1.267       .  A
O843       Co863   2.022       .  S
O844        C852   1.267       .  A
O844       Co864   1.970       .  S
O845        C853   1.262       .  A
O845       Co865   1.988       .  S
O846        C852   1.274       .  A
O846       Co863   2.014       .  S
O847        C853   1.266       .  A
O847       Co862   2.014       .  S
O848        C851   1.252       .  A
O848       Co865   1.943       .  S
O849        C850   1.255       .  A
O849       Co864   1.877       .  S
C850       C1630   1.439       .  S
C851       C1509   1.465       .  S
C852       C1521   1.459       .  S
C853       C1513   1.474       .  S
O854        C867   1.270       .  A
O854       Co862   1.977       .  S
O855        C868   1.259       .  A
O855       Co863   1.983       .  S
O856        C869   1.295       .  A
O856       Co864   2.094       .  S
O857        C870   1.283       .  A
O857       Co865   2.058       .  S
O858        C870   1.263       .  A
O858       Co863   1.944       .  S
O859        C869   1.272       .  A
O859       Co862   1.925       .  S
O860        C867   1.273       .  A
O860       Co865   1.981       .  S
O861        C868   1.248       .  A
O861       Co864   1.954       .  S
Co862       O866   2.043       .  S
Co863       O866   2.060       .  S
Co864       O866   1.987       .  S
Co865       O866   2.010       .  S
C867       C1517   1.471       .  S
C868       C1798   1.453       .  S
C869       C1814   1.488       .  S
C870       C1505   1.474       .  S
O871        C879   1.265       .  A
O871       Co891   2.012       .  S
O872        C880   1.296       .  A
O872       Co892   2.110       .  S
O873        C881   1.249       .  A
O873       Co893   1.964       .  S
O874        C882   1.269       .  A
O874       Co894   1.973       .  S
O875        C881   1.266       .  A
O875       Co892   2.051       .  S
O876        C882   1.273       .  A
O876       Co891   2.024       .  S
O877        C880   1.262       .  A
O877       Co894   1.880       .  S
O878        C879   1.254       .  A
O878       Co893   1.927       .  S
C879       C1489   1.453       .  S
C880       C1501   1.462       .  S
C881       C1493   1.485       .  S
C882       C1546   1.477       .  S
O883        C896   1.262       .  A
O883       Co891   1.980       .  S
O884        C897   1.271       .  A
O884       Co892   1.977       .  S
O885        C898   1.275       .  A
O885       Co893   2.031       .  S
O886        C899   1.291       .  A
O886       Co894   2.090       .  S
O887        C899   1.271       .  A
O887       Co892   1.891       .  S
O888        C898   1.263       .  A
O888       Co891   1.965       .  S
O889        C896   1.263       .  A
O889       Co894   1.992       .  S
O890        C897   1.281       .  A
O890       Co893   2.035       .  S
Co891       O895   2.066       .  S
Co892       O895   2.032       .  S
Co893       O895   2.014       .  S
Co894       O895   1.997       .  S
C896       C1586   1.475       .  S
C897       C1497   1.496       .  S
C898       C1681   1.493       .  S
C899       C1518   1.465       .  S
O900        C908   1.263       .  A
O900       Co920   1.954       .  S
O901        C909   1.249       .  A
O901       Co921   2.006       .  S
O902        C910   1.286       .  A
O902       Co922   2.065       .  S
O903        C911   1.259       .  A
O903       Co923   1.990       .  S
O904        C910   1.273       .  A
O904       Co921   1.946       .  S
O905        C911   1.240       .  A
O905       Co920   1.934       .  S
O906        C909   1.252       .  A
O906       Co923   2.001       .  S
O907        C908   1.282       .  A
O907       Co922   2.037       .  S
C908       C1486   1.474       .  S
C909       C1574   1.474       .  S
C910       C1602   1.488       .  S
C911       C1718   1.441       .  S
O912        C925   1.263       .  A
O912       Co920   1.977       .  S
O913        C926   1.289       .  A
O913       Co921   2.069       .  S
O914        C927   1.251       .  A
O914       Co922   1.987       .  S
O915        C928   1.259       .  A
O915       Co923   1.948       .  S
O916        C928   1.287       .  A
O916       Co921   2.058       .  S
O917        C927   1.247       .  A
O917       Co920   1.934       .  S
O918        C925   1.268       .  A
O918       Co923   2.003       .  S
O919        C926   1.276       .  A
O919       Co922   1.943       .  S
Co920       O924   2.087       .  S
Co921       O924   2.041       .  S
Co922       O924   2.058       .  S
Co923       O924   2.079       .  S
C925       C1481   1.473       .  S
C926       C2057   1.488       .  S
C927       C2146   1.459       .  S
C928       C1477   1.476       .  S
O929        C937   1.263       .  A
O929       Co949   1.907       .  S
O930        C938   1.242       .  A
O930       Co950   1.946       .  S
O931        C939   1.269       .  A
O931       Co951   2.046       .  S
O932        C940   1.275       .  A
O932       Co952   2.010       .  S
O933        C939   1.246       .  A
O933       Co950   1.953       .  S
O934        C940   1.264       .  A
O934       Co949   1.978       .  S
O935        C938   1.267       .  A
O935       Co952   2.049       .  S
O936        C937   1.286       .  A
O936       Co951   2.069       .  S
C937       C1473   1.458       .  S
C938       C1654   1.473       .  S
C939       C1550   1.481       .  S
C940       C1673   1.472       .  S
O941        C954   1.264       .  A
O941       Co949   1.999       .  S
O942        C955   1.277       .  A
O942       Co950   2.019       .  S
O943        C956   1.270       .  A
O943       Co951   1.910       .  S
O944        C957   1.265       .  A
O944       Co952   1.957       .  S
O945        C957   1.281       .  A
O945       Co950   2.043       .  S
O946        C956   1.306       .  A
O946       Co949   2.123       .  S
O947        C954   1.261       .  A
O947       Co952   1.982       .  S
O948        C955   1.271       .  A
O948       Co951   1.980       .  S
Co949       O953   2.013       .  S
Co950       O953   1.999       .  S
Co951       O953   2.051       .  S
Co952       O953   2.095       .  S
C954       C2034   1.482       .  S
C955       C1530   1.474       .  S
C956       C2090   1.492       .  S
C957       C1469   1.471       .  S
O958        C966   1.270       .  A
O958       Co978   1.894       .  S
O959        C967   1.258       .  A
O959       Co979   1.992       .  S
O960        C968   1.304       .  A
O960       Co980   2.098       .  S
O961        C969   1.264       .  A
O961       Co981   2.024       .  S
O962        C968   1.260       .  A
O962       Co979   1.880       .  S
O963        C969   1.257       .  A
O963       Co978   2.001       .  S
O964        C967   1.266       .  A
O964       Co981   2.027       .  S
O965        C966   1.297       .  A
O965       Co980   2.065       .  S
C966       C1465   1.452       .  S
C967       C1698   1.471       .  S
C968       C1590   1.468       .  S
C969       C1461   1.482       .  S
O970        C983   1.273       .  A
O970       Co978   1.987       .  S
O971        C984   1.244       .  A
O971       Co979   1.953       .  S
O972        C985   1.258       .  A
O972       Co980   2.028       .  S
O973        C986   1.252       .  A
O973       Co981   1.964       .  S
O974        C986   1.261       .  A
O974       Co979   1.966       .  S
O975        C985   1.246       .  A
O975       Co978   1.965       .  S
O976        C983   1.256       .  A
O976       Co981   1.967       .  S
O977        C984   1.255       .  A
O977       Co980   1.995       .  S
Co978       O982   1.901       .  S
Co979       O982   1.901       .  S
Co980       O982   2.262       .  S
Co981       O982   2.114       .  S
C983       C2050   1.470       .  S
C984       C1526   1.462       .  S
C985       C2070   1.489       .  S
C986       C1457   1.447       .  S
O987        C995   1.264       .  A
O987      Co1007   2.006       .  S
O988        C996   1.287       .  A
O988      Co1008   2.083       .  S
O989        C997   1.249       .  A
O989      Co1009   1.939       .  S
O990        C998   1.268       .  A
O990      Co1010   1.979       .  S
O991        C997   1.265       .  A
O991      Co1008   2.020       .  S
O992        C998   1.281       .  A
O992      Co1007   2.043       .  S
O993        C996   1.259       .  A
O993      Co1010   1.885       .  S
O994        C995   1.255       .  A
O994      Co1009   1.946       .  S
C995       C1449   1.449       .  S
C996       C1490   1.442       .  S
C997       C1454   1.460       .  S
C998       C1542   1.488       .  S
O999       C1012   1.247       .  A
O999      Co1007   1.954       .  S
O1000      C1013   1.269       .  A
O1000     Co1008   1.976       .  S
O1001      C1014   1.273       .  A
O1001     Co1009   2.009       .  S
O1002      C1015   1.292       .  A
O1002     Co1010   2.089       .  S
O1003      C1015   1.272       .  A
O1003     Co1008   1.926       .  S
O1004      C1014   1.254       .  A
O1004     Co1007   1.941       .  S
O1005      C1012   1.252       .  A
O1005     Co1010   1.964       .  S
O1006      C1013   1.275       .  A
O1006     Co1009   2.013       .  S
Co1007     O1011   2.048       .  S
Co1008     O1011   2.045       .  S
Co1009     O1011   2.008       .  S
Co1010     O1011   1.985       .  S
C1012      C1458   1.433       .  S
C1013      C1482   1.473       .  S
C1014      C1710   1.450       .  S
C1015      C1686   1.479       .  S
O1016      C1024   1.273       .  A
O1016     Co1036   1.920       .  S
O1017      C1025   1.259       .  A
O1017     Co1037   1.988       .  S
O1018      C1026   1.290       .  A
O1018     Co1038   2.061       .  S
O1019      C1027   1.264       .  A
O1019     Co1039   2.013       .  S
O1020      C1026   1.267       .  A
O1020     Co1037   1.902       .  S
O1021      C1027   1.249       .  A
O1021     Co1036   1.983       .  S
O1022      C1025   1.264       .  A
O1022     Co1039   2.017       .  S
O1023      C1024   1.290       .  A
O1023     Co1038   2.047       .  S
C1024      C1441   1.458       .  S
C1025      C1617   1.477       .  S
C1026      C1522   1.473       .  S
C1027      C1445   1.468       .  S
O1028      C1041   1.273       .  A
O1028     Co1036   2.011       .  S
O1029      C1042   1.250       .  A
O1029     Co1037   1.968       .  S
O1030      C1043   1.254       .  A
O1030     Co1038   2.006       .  S
O1031      C1044   1.264       .  A
O1031     Co1039   1.980       .  S
O1032      C1044   1.272       .  A
O1032     Co1037   1.996       .  S
O1033      C1043   1.244       .  A
O1033     Co1036   1.964       .  S
O1034      C1041   1.264       .  A
O1034     Co1039   1.975       .  S
O1035      C1042   1.258       .  A
O1035     Co1038   2.008       .  S
Co1036     O1040   1.928       .  S
Co1037     O1040   1.941       .  S
Co1038     O1040   2.252       .  S
Co1039     O1040   2.126       .  S
C1041      C2022   1.472       .  S
C1042      C1794   1.484       .  S
C1043      C2134   1.477       .  S
C1044      C1733   1.476       .  S
O1045      C1053   1.268       .  A
O1045     Co1065   2.026       .  S
O1046      C1054   1.292       .  A
O1046     Co1066   2.109       .  S
O1047      C1055   1.250       .  A
O1047     Co1067   1.940       .  S
O1048      C1056   1.271       .  A
O1048     Co1068   1.994       .  S
O1049      C1055   1.260       .  A
O1049     Co1066   2.006       .  S
O1050      C1056   1.280       .  A
O1050     Co1065   2.045       .  S
O1051      C1054   1.264       .  A
O1051     Co1068   1.888       .  S
O1052      C1053   1.249       .  A
O1052     Co1067   1.927       .  S
C1053      C1450   1.460       .  S
C1054      C1433   1.470       .  S
C1055      C1538   1.451       .  S
C1056      C1437   1.502       .  S
O1057      C1070   1.263       .  A
O1057     Co1065   1.988       .  S
O1058      C1071   1.281       .  A
O1058     Co1066   2.003       .  S
O1059      C1072   1.278       .  A
O1059     Co1067   2.045       .  S
O1060      C1073   1.296       .  A
O1060     Co1068   2.099       .  S
O1061      C1073   1.273       .  A
O1061     Co1066   1.919       .  S
O1062      C1072   1.268       .  A
O1062     Co1065   1.976       .  S
O1063      C1070   1.263       .  A
O1063     Co1068   2.000       .  S
O1064      C1071   1.276       .  A
O1064     Co1067   2.028       .  S
Co1065     O1069   2.055       .  S
Co1066     O1069   2.043       .  S
Co1067     O1069   2.016       .  S
Co1068     O1069   2.005       .  S
C1070      C1578   1.477       .  S
C1071      C1558   1.507       .  S
C1072      C1705   1.491       .  S
C1073      C1646   1.479       .  S
O1074      C1082   1.298       .  A
O1074     Co1094   2.121       .  S
O1075      C1083   1.265       .  A
O1075     Co1095   2.005       .  S
O1076      C1084   1.270       .  A
O1076     Co1096   1.975       .  S
O1077      C1085   1.259       .  A
O1077     Co1097   1.962       .  S
O1078      C1084   1.271       .  A
O1078     Co1095   2.008       .  S
O1079      C1085   1.267       .  A
O1079     Co1094   2.014       .  S
O1080      C1083   1.263       .  A
O1080     Co1097   1.967       .  S
O1081      C1082   1.263       .  A
O1081     Co1096   1.903       .  S
C1082      C1430   1.484       .  S
C1083      C1626   1.467       .  S
C1084      C1446   1.467       .  S
C1085      C1425   1.469       .  S
O1086      C1099   1.281       .  A
O1086     Co1094   2.007       .  S
O1087      C1100   1.267       .  A
O1087     Co1095   1.993       .  S
O1088      C1101   1.299       .  A
O1088     Co1096   2.112       .  S
O1089      C1102   1.272       .  A
O1089     Co1097   2.001       .  S
O1090      C1102   1.274       .  A
O1090     Co1095   1.974       .  S
O1091      C1101   1.274       .  A
O1091     Co1094   1.918       .  S
O1092      C1099   1.276       .  A
O1092     Co1097   2.000       .  S
O1093      C1100   1.265       .  A
O1093     Co1096   1.986       .  S
Co1094     O1098   2.030       .  S
Co1095     O1098   2.075       .  S
Co1096     O1098   1.995       .  S
Co1097     O1098   2.013       .  S
C1099      C1942   1.501       .  S
C1100      C2018   1.484       .  S
C1101      C2086   1.497       .  S
C1102      C1874   1.467       .  S
O1103      C1111   1.285       .  A
O1103     Co1123   2.062       .  S
O1104      C1112   1.273       .  A
O1104     Co1124   2.037       .  S
O1105      C1113   1.268       .  A
O1105     Co1125   1.877       .  S
O1106      C1114   1.255       .  A
O1106     Co1126   1.938       .  S
O1107      C1113   1.286       .  A
O1107     Co1124   2.084       .  S
O1108      C1114   1.269       .  A
O1108     Co1123   2.021       .  S
O1109      C1112   1.267       .  A
O1109     Co1126   1.986       .  S
O1110      C1111   1.272       .  A
O1110     Co1125   1.981       .  S
C1111      C1438   1.502       .  S
C1112      C1494   1.497       .  S
C1113      C1417   1.454       .  S
C1114      C1453   1.457       .  S
O1115      C1128   1.256       .  A
O1115     Co1123   1.954       .  S
O1116      C1129   1.272       .  A
O1116     Co1124   1.887       .  S
O1117      C1130   1.257       .  A
O1117     Co1125   2.015       .  S
O1118      C1131   1.269       .  A
O1118     Co1126   1.996       .  S
O1119      C1131   1.266       .  A
O1119     Co1124   1.976       .  S
O1120      C1130   1.250       .  A
O1120     Co1123   1.958       .  S
O1121      C1128   1.282       .  A
O1121     Co1126   2.048       .  S
O1122      C1129   1.294       .  A
O1122     Co1125   2.103       .  S
Co1123     O1127   2.023       .  S
Co1124     O1127   1.999       .  S
Co1125     O1127   2.017       .  S
Co1126     O1127   2.037       .  S
C1128      C1478   1.481       .  S
C1129      C1421   1.474       .  S
C1130      C1570   1.472       .  S
C1131      C1413   1.481       .  S
O1132      C1140   1.259       .  A
O1132     Co1152   1.969       .  S
O1133      C1141   1.267       .  A
O1133     Co1153   1.978       .  S
O1134      C1142   1.301       .  A
O1134     Co1154   2.149       .  S
O1135      C1143   1.271       .  A
O1135     Co1155   2.026       .  S
O1136      C1142   1.256       .  A
O1136     Co1153   1.875       .  S
O1137      C1143   1.256       .  A
O1137     Co1152   1.945       .  S
O1138      C1141   1.276       .  A
O1138     Co1155   2.013       .  S
O1139      C1140   1.257       .  A
O1139     Co1154   2.005       .  S
C1140      C1442   1.474       .  S
C1141      C1409   1.465       .  S
C1142      C1429   1.475       .  S
C1143      C1510   1.466       .  S
O1144      C1157   1.277       .  A
O1144     Co1152   2.027       .  S
O1145      C1158   1.297       .  A
O1145     Co1153   2.117       .  S
O1146      C1159   1.267       .  A
O1146     Co1154   1.974       .  S
O1147      C1160   1.265       .  A
O1147     Co1155   1.988       .  S
O1148      C1160   1.255       .  A
O1148     Co1153   1.978       .  S
O1149      C1159   1.275       .  A
O1149     Co1152   2.010       .  S
O1150      C1157   1.265       .  A
O1150     Co1155   1.970       .  S
O1151      C1158   1.264       .  A
O1151     Co1154   1.858       .  S
Co1152     O1156   2.025       .  S
Co1153     O1156   1.995       .  S
Co1154     O1156   2.006       .  S
Co1155     O1156   2.047       .  S
C1157      C1405   1.483       .  S
C1158      C2078   1.470       .  S
C1159      C2130   1.480       .  S
C1160      C1422   1.472       .  S
O1161      C1169   1.253       .  A
O1161     Co1181   1.998       .  S
O1162      C1170   1.252       .  A
O1162     Co1182   1.970       .  S
O1163      C1171   1.276       .  A
O1163     Co1183   2.023       .  S
O1164      C1172   1.257       .  A
O1164     Co1184   1.931       .  S
O1165      C1171   1.262       .  A
O1165     Co1182   2.013       .  S
O1166      C1172   1.282       .  A
O1166     Co1181   2.057       .  S
O1167      C1170   1.258       .  A
O1167     Co1184   1.999       .  S
O1168      C1169   1.275       .  A
O1168     Co1183   2.025       .  S
C1169      C1621   1.484       .  S
C1170      C1410   1.460       .  S
C1171      C1514   1.471       .  S
C1172      C1426   1.475       .  S
O1173      C1186   1.243       .  A
O1173     Co1181   1.962       .  S
O1174      C1187   1.252       .  A
O1174     Co1182   1.978       .  S
O1175      C1188   1.263       .  A
O1175     Co1183   1.900       .  S
O1176      C1189   1.253       .  A
O1176     Co1184   1.965       .  S
O1177      C1189   1.265       .  A
O1177     Co1182   2.007       .  S
O1178      C1188   1.283       .  A
O1178     Co1181   2.055       .  S
O1179      C1186   1.251       .  A
O1179     Co1184   2.021       .  S
O1180      C1187   1.263       .  A
O1180     Co1183   2.040       .  S
Co1181     O1185   2.170       .  S
Co1182     O1185   2.103       .  S
Co1183     O1185   2.005       .  S
Co1184     O1185   2.153       .  S
C1186      C1934   1.490       .  S
C1187      C1498   1.488       .  S
C1188      C1994   1.460       .  S
C1189      C1414   1.467       .  S
O1190      C1198   1.263       .  A
O1190     Co1210   1.916       .  S
O1191      C1199   1.260       .  A
O1191     Co1211   1.982       .  S
O1192      C1200   1.271       .  A
O1192     Co1212   2.026       .  S
O1193      C1201   1.248       .  A
O1193     Co1213   2.008       .  S
O1194      C1200   1.252       .  A
O1194     Co1211   1.944       .  S
O1195      C1201   1.231       .  A
O1195     Co1210   1.961       .  S
O1196      C1199   1.253       .  A
O1196     Co1213   1.971       .  S
O1197      C1198   1.293       .  A
O1197     Co1212   2.085       .  S
C1198      C1434   1.465       .  S
C1199      C1502   1.467       .  S
C1200      C1534   1.466       .  S
C1201      C1418   1.441       .  S
O1202      C1215   1.282       .  A
O1202     Co1210   2.043       .  S
O1203      C1216   1.261       .  A
O1203     Co1211   2.004       .  S
O1204      C1217   1.266       .  A
O1204     Co1212   1.901       .  S
O1205      C1218   1.268       .  A
O1205     Co1213   2.014       .  S
O1206      C1218   1.262       .  A
O1206     Co1211   1.962       .  S
O1207      C1217   1.291       .  A
O1207     Co1210   2.066       .  S
O1208      C1215   1.267       .  A
O1208     Co1213   1.964       .  S
O1209      C1216   1.256       .  A
O1209     Co1212   1.983       .  S
Co1210     O1214   2.022       .  S
Co1211     O1214   2.070       .  S
Co1212     O1214   2.059       .  S
Co1213     O1214   2.119       .  S
C1215      C1406   1.480       .  S
C1216      C1470   1.480       .  S
C1217      C1650   1.472       .  S
C1218      C1506   1.473       .  S
O1219      C1227   1.258       .  A
O1219     Co1239   1.944       .  S
O1220      C1228   1.265       .  A
O1220     Co1240   1.876       .  S
O1221      C1229   1.272       .  A
O1221     Co1241   2.019       .  S
O1222      C1230   1.268       .  A
O1222     Co1242   2.029       .  S
O1223      C1229   1.266       .  A
O1223     Co1240   1.971       .  S
O1224      C1230   1.257   1_554  A
O1224     Co1239   1.973   1_554  S
O1225      C1228   1.301       .  A
O1225     Co1242   2.130       .  S
O1226      C1227   1.269       .  A
O1226     Co1241   2.028       .  S
C1227      C1466   1.469   1_556  S
C1228      C1638   1.471   1_556  S
C1229      C1402   1.461   1_556  S
C1230      C1598   1.487   1_556  S
O1231      C1244   1.274       .  A
O1231     Co1239   2.020       .  S
O1232      C1245   1.272       .  A
O1232     Co1240   2.066       .  S
O1233      C1246   1.253       .  A
O1233     Co1241   1.944       .  S
O1234      C1247   1.267       .  A
O1234     Co1242   1.875       .  S
O1235      C1247   1.301       .  A
O1235     Co1240   2.104       .  S
O1236      C1246   1.274       .  A
O1236     Co1239   2.012       .  S
O1237      C1244   1.276       .  A
O1237     Co1242   1.991       .  S
O1238      C1245   1.254       .  A
O1238     Co1241   1.965       .  S
Co1239     O1243   2.039       .  S
Co1240     O1243   2.009       .  S
Co1241     O1243   2.055       .  S
Co1242     O1243   1.991       .  S
C1244      C1954   1.487       .  S
C1245      C2026   1.509       .  S
C1246      C2062   1.460       .  S
C1247      C1978   1.467       .  S
O1248      C1256   1.251   1_545  A
O1248     Co1268   1.955   1_545  S
O1249      C1257   1.267       .  A
O1249     Co1269   1.976       .  S
O1250      C1258   1.300       .  A
O1250     Co1270   2.143       .  S
O1251      C1259   1.263       .  A
O1251     Co1271   2.021       .  S
O1252      C1258   1.259       .  A
O1252     Co1269   1.897       .  S
O1253      C1259   1.248       .  A
O1253     Co1268   1.943       .  S
O1254      C1257   1.271       .  A
O1254     Co1271   2.018       .  S
O1255      C1256   1.263       .  A
O1255     Co1270   2.016       .  S
C1256      C1485   1.471   1_565  S
C1257      C1397   1.466   1_565  S
C1258      C1725   1.485   1_565  S
C1259      C1605   1.464   1_565  S
O1260      C1273   1.280       .  A
O1260     Co1268   2.037       .  S
O1261      C1274   1.300       .  A
O1261     Co1269   2.099       .  S
O1262      C1275   1.283       .  A
O1262     Co1270   2.022       .  S
O1263      C1276   1.261       .  A
O1263     Co1271   1.983       .  S
O1264      C1276   1.263       .  A
O1264     Co1269   2.005       .  S
O1265      C1275   1.275       .  A
O1265     Co1268   2.016       .  S
O1266      C1273   1.265       .  A
O1266     Co1271   1.957       .  S
O1267      C1274   1.273       .  A
O1267     Co1270   1.918       .  S
Co1268     O1272   2.019       .  S
Co1269     O1272   2.001       .  S
Co1270     O1272   2.049       .  S
Co1271     O1272   2.100       .  S
C1273      C2125   1.476       .  S
C1274      C1782   1.493       .  S
C1275      C2157   1.506       .  S
C1276      C1738   1.481       .  S
O1277      C1285   1.264       .  A
O1277     Co1297   2.028       .  S
O1278      C1286   1.281       .  A
O1278     Co1298   2.047       .  S
O1279      C1287   1.262       .  A
O1279     Co1299   1.961   1_554  S
O1280      C1288   1.264       .  A
O1280     Co1300   1.882       .  S
O1281      C1287   1.267   1_556  A
O1281     Co1298   2.003       .  S
O1282      C1288   1.294       .  A
O1282     Co1297   2.109       .  S
O1283      C1286   1.265       .  A
O1283     Co1300   1.960       .  S
O1284      C1285   1.260   1_554  A
O1284     Co1299   1.972   1_554  S
C1285      C1669   1.485   1_556  S
C1286      C1562   1.475   1_556  S
C1287      C1393   1.459       .  S
C1288      C1474   1.456   1_556  S
O1289      C1302   1.266       .  A
O1289     Co1297   1.876       .  S
O1290      C1303   1.274       .  A
O1290     Co1298   1.992       .  S
O1291      C1304   1.280       .  A
O1291     Co1299   2.009       .  S
O1292      C1305   1.263       .  A
O1292     Co1300   1.989       .  S
O1293      C1305   1.260       .  A
O1293     Co1298   1.975       .  S
O1294      C1304   1.265       .  A
O1294     Co1297   1.961       .  S
O1295      C1302   1.297       .  A
O1295     Co1300   2.112       .  S
O1296      C1303   1.270       .  A
O1296     Co1299   1.991       .  S
Co1297     O1301   2.001       .  S
Co1298     O1301   2.042       .  S
Co1299     O1301   1.999       .  S
Co1300     O1301   1.992       .  S
C1302      C2097   1.472       .  S
C1303      C1882   1.473       .  S
C1304      C2121   1.474       .  S
C1305      C1918   1.470       .  S
O1306      C1314   1.262       .  A
O1306     Co1326   1.994       .  S
O1307      C1315   1.260       .  A
O1307     Co1327   1.954       .  S
O1308      C1316   1.294       .  A
O1308     Co1328   2.104       .  S
O1309      C1317   1.270       .  A
O1309     Co1329   2.020       .  S
O1310      C1316   1.262       .  A
O1310     Co1327   1.886       .  S
O1311      C1317   1.270       .  A
O1311     Co1326   1.983       .  S
O1312      C1315   1.282       .  A
O1312     Co1329   2.059       .  S
O1313      C1314   1.259       .  A
O1313     Co1328   2.005       .  S
C1314      C1565   1.480       .  S
C1315      C1678   1.477   1_655  S
C1316      C1394   1.459   1_655  S
C1317      C1661   1.489       .  S
O1318      C1331   1.273       .  A
O1318     Co1326   2.025       .  S
O1319      C1332   1.296       .  A
O1319     Co1327   2.112       .  S
O1320      C1333   1.264       .  A
O1320     Co1328   1.958       .  S
O1321      C1334   1.250       .  A
O1321     Co1329   1.971       .  S
O1322      C1334   1.262       .  A
O1322     Co1327   2.007       .  S
O1323      C1333   1.286       .  A
O1323     Co1326   2.047       .  S
O1324      C1331   1.260       .  A
O1324     Co1329   1.966       .  S
O1325      C1332   1.260       .  A
O1325     Co1328   1.879       .  S
Co1326     O1330   2.031       .  S
Co1327     O1330   2.013       .  S
Co1328     O1330   1.997       .  S
Co1329     O1330   2.029       .  S
C1331      C1838   1.479       .  S
C1332      C1886   1.470       .  S
C1333      C1898   1.483       .  S
C1334      C1862   1.469       .  S
O1335      C1343   1.302       .  A
O1335     Co1355   2.112       .  S
O1336      C1344   1.303       .  A
O1336     Co1356   2.115       .  S
O1337      C1345   1.255       .  A
O1337     Co1357   1.973   1_455  S
O1338      C1346   1.255       .  A
O1338     Co1358   1.962       .  S
O1339      C1345   1.259   1_655  A
O1339     Co1356   1.964       .  S
O1340      C1346   1.263       .  A
O1340     Co1355   1.989       .  S
O1341      C1344   1.265       .  A
O1341     Co1358   1.865       .  S
O1342      C1343   1.270       .  A
O1342     Co1357   1.860       .  S
C1343      C1581   1.466   1_655  S
C1344      C1398   1.467       .  S
C1345      C1614   1.468       .  S
C1346      C1722   1.449   1_655  S
O1347      C1360   1.257       .  A
O1347     Co1355   1.971       .  S
O1348      C1361   1.268       .  A
O1348     Co1356   1.981       .  S
O1349      C1362   1.257       .  A
O1349     Co1357   1.999       .  S
O1350      C1363   1.251       .  A
O1350     Co1358   1.984       .  S
O1351      C1363   1.249       .  A
O1351     Co1356   1.955       .  S
O1352      C1362   1.244       .  A
O1352     Co1355   1.945       .  S
O1353      C1360   1.266       .  A
O1353     Co1358   1.990       .  S
O1354      C1361   1.273       .  A
O1354     Co1357   2.014       .  S
Co1355     O1359   2.120       .  S
Co1356     O1359   2.121       .  S
Co1357     O1359   1.965       .  S
Co1358     O1359   1.957       .  S
C1360      C1758   1.457       .  S
C1361      C1982   1.477       .  S
C1362      C2014   1.455       .  S
C1363      C1742   1.461       .  S
O1364      C1372   1.257       .  A
O1364     Co1384   2.003       .  S
O1365      C1373   1.277       .  A
O1365     Co1385   2.057       .  S
O1366      C1374   1.265       .  A
O1366     Co1386   1.966       .  S
O1367      C1375   1.256   1_565  A
O1367     Co1387   1.986       .  S
O1368      C1374   1.252       .  A
O1368     Co1385   1.986       .  S
O1369      C1375   1.251   1_565  A
O1369     Co1384   1.976       .  S
O1370      C1373   1.256       .  A
O1370     Co1387   1.946       .  S
O1371      C1372   1.278       .  A
O1371     Co1386   2.042       .  S
C1372      C1462   1.480   1_565  S
C1373      C1642   1.472   1_565  S
C1374      C1701   1.443   1_565  S
C1375      C1401   1.460       .  S
O1376      C1389   1.259       .  A
O1376     Co1384   1.987       .  S
O1377      C1390   1.282       .  A
O1377     Co1385   2.041       .  S
O1378      C1391   1.261       .  A
O1378     Co1386   2.004       .  S
O1379      C1392   1.250       .  A
O1379     Co1387   1.976       .  S
O1380      C1392   1.249       .  A
O1380     Co1385   1.976       .  S
O1381      C1391   1.251       .  A
O1381     Co1384   1.974       .  S
O1382      C1389   1.246       .  A
O1382     Co1387   1.953       .  S
O1383      C1390   1.262       .  A
O1383     Co1386   1.914       .  S
Co1384     O1388   2.116       .  S
Co1385     O1388   2.201       .  S
Co1386     O1388   1.981       .  S
Co1387     O1388   2.095       .  S
C1389      C2030   1.449       .  S
C1390      C1809   1.458       .  S
C1391      C2042   1.473       .  S
C1392      C1870   1.468       .  S
C1393      C1394   1.337       .  D
C1393      H1395   1.086       .  S
C1394      H1396   1.088       .  S
C1397      C1398   1.342   1_455  D
C1397      H1399   1.086       .  S
C1398      H1400   1.088   1_545  S
C1401      C1402   1.338       .  D
C1401      H1403   1.086       .  S
C1402      H1404   1.088   1_554  S
C1405      C1406   1.348       .  D
C1405      H1407   1.087       .  S
C1406      H1408   1.087       .  S
C1409      C1410   1.340       .  D
C1409      H1411   1.086       .  S
C1410      H1412   1.088       .  S
C1413      C1414   1.351       .  D
C1413      H1415   1.087       .  S
C1414      H1416   1.086       .  S
C1417      C1418   1.324       .  D
C1417      H1419   1.088       .  S
C1418      H1420   1.087       .  S
C1421      C1422   1.335       .  D
C1421      H1423   1.086       .  S
C1422      H1424   1.088       .  S
C1425      C1426   1.350       .  D
C1425      H1427   1.086       .  S
C1426      H1428   1.087       .  S
C1429      C1430   1.341       .  D
C1429      H1431   1.087       .  S
C1430      H1432   1.086       .  S
C1433      C1434   1.339       .  D
C1433      H1435   1.087       .  S
C1434      H1436   1.086       .  S
C1437      C1438   1.355       .  D
C1437      H1439   1.086       .  S
C1438      H1440   1.086       .  S
C1441      C1442   1.338       .  D
C1441      H1443   1.088       .  S
C1442      H1444   1.086       .  S
C1445      C1446   1.336       .  D
C1445      H1447   1.087       .  S
C1446      H1448   1.087       .  S
C1449      C1450   1.345       .  D
C1449      H1451   1.087       .  S
C1450      H1452   1.086       .  S
C1453      C1454   1.348       .  D
C1453      H1455   1.087       .  S
C1454      H1456   1.086       .  S
C1457      C1458   1.338       .  D
C1457      H1459   1.087       .  S
C1458      H1460   1.087       .  S
C1461      C1462   1.347       .  D
C1461      H1463   1.087       .  S
C1462      H1464   1.086       .  S
C1465      C1466   1.341       .  D
C1465      H1467   1.087       .  S
C1466      H1468   1.086   1_554  S
C1469      C1470   1.350       .  D
C1469      H1471   1.086       .  S
C1470      H1472   1.087       .  S
C1473      C1474   1.341       .  D
C1473      H1475   1.086   1_554  S
C1474      H1476   1.087       .  S
C1477      C1478   1.336       .  D
C1477      H1479   1.088       .  S
C1478      H1480   1.087       .  S
C1481      C1482   1.351       .  D
C1481      H1483   1.087       .  S
C1482      H1484   1.087       .  S
C1485      C1486   1.354       .  D
C1485      H1487   1.086       .  S
C1486      H1488   1.087       .  S
C1489      C1490   1.339       .  D
C1489      H1491   1.087       .  S
C1490      H1492   1.087       .  S
C1493      C1494   1.348       .  D
C1493      H1495   1.087       .  S
C1494      H1496   1.086       .  S
C1497      C1498   1.351       .  D
C1497      H1499   1.086       .  S
C1498      H1500   1.086       .  S
C1501      C1502   1.342       .  D
C1501      H1503   1.087       .  S
C1502      H1504   1.086       .  S
C1505      C1506   1.349       .  D
C1505      H1507   1.087       .  S
C1506      H1508   1.088       .  S
C1509      C1510   1.346       .  D
C1509      H1511   1.086       .  S
C1510      H1512   1.087       .  S
C1513      C1514   1.343       .  D
C1513      H1515   1.087       .  S
C1514      H1516   1.086       .  S
C1517      C1518   1.340       .  D
C1517      H1519   1.086       .  S
C1518      H1520   1.089       .  S
C1521      C1522   1.347       .  D
C1521      H1523   1.086       .  S
C1522      H1524   1.087       .  S
C1525      C1526   1.344       .  D
C1525      H1527   1.087       .  S
C1526      H1528   1.087       .  S
C1529      C1530   1.355       .  D
C1529      H1531   1.085       .  S
C1530      H1532   1.087       .  S
C1533      C1534   1.353       .  D
C1533      H1535   1.086       .  S
C1534      H1536   1.087       .  S
C1537      C1538   1.343       .  D
C1537      H1539   1.087       .  S
C1538      H1540   1.087       .  S
C1541      C1542   1.349       .  D
C1541      H1543   1.086       .  S
C1542      H1544   1.086       .  S
C1545      C1546   1.339       .  D
C1545      H1547   1.088       .  S
C1546      H1548   1.086       .  S
C1549      C1550   1.336       .  D
C1549      H1551   1.086       .  S
C1550      H1552   1.087       .  S
C1553      C1554   1.340       .  D
C1553      H1555   1.086       .  S
C1554      H1556   1.088       .  S
C1557      C1558   1.368       .  D
C1557      H1559   1.086       .  S
C1558      H1560   1.086       .  S
C1561      C1562   1.345       .  D
C1561      H1563   1.086       .  S
C1562      H1564   1.087       .  S
C1565      C1566   1.343   1_655  D
C1565      H1567   1.086       .  S
C1566      H1568   1.087       .  S
C1569      C1570   1.343       .  D
C1569      H1571   1.088       .  S
C1570      H1572   1.086       .  S
C1573      C1574   1.345       .  D
C1573      H1575   1.086       .  S
C1574      H1576   1.088       .  S
C1577      C1578   1.349       .  D
C1577      H1579   1.087       .  S
C1578      H1580   1.088       .  S
C1581      C1582   1.346       .  D
C1581      H1583   1.086       .  S
C1582      H1584   1.088       .  S
C1585      C1586   1.348       .  D
C1585      H1587   1.087       .  S
C1586      H1588   1.087       .  S
C1589      C1590   1.333       .  D
C1589      H1591   1.087       .  S
C1590      H1592   1.087       .  S
C1593      C1594   1.341       .  D
C1593      H1595   1.086       .  S
C1594      H1596   1.088       .  S
C1597      C1598   1.357       .  D
C1597      H1599   1.086       .  S
C1598      H1600   1.086       .  S
C1601      C1602   1.356       .  D
C1601      H1603   1.086       .  S
C1602      H1604   1.086       .  S
C1605      C1606   1.343       .  D
C1605      H1607   1.087       .  S
C1606      H1608   1.086       .  S
C1609      C1610   1.343       .  D
C1609      H1611   1.086       .  S
C1610      H1612   1.088       .  S
C1613      C1614   1.344       .  D
C1613      H1615   1.087       .  S
C1614      H1616   1.086       .  S
C1617      C1618   1.350       .  D
C1617      H1619   1.087       .  S
C1618      H1620   1.086       .  S
C1621      C1622   1.343       .  D
C1621      H1623   1.087       .  S
C1622      H1624   1.086       .  S
C1625      C1626   1.338       .  D
C1625      H1627   1.087       .  S
C1626      H1628   1.087       .  S
C1629      C1630   1.330       .  D
C1629      H1631   1.087       .  S
C1630      H1632   1.087       .  S
C1633      C1634   1.344       .  D
C1633      H1635   1.087       .  S
C1634      H1636   1.086       .  S
C1637      C1638   1.347       .  D
C1637      H1639   1.086       .  S
C1638      H1640   1.087       .  S
C1641      C1642   1.344       .  D
C1641      H1643   1.086   1_545  S
C1642      H1644   1.086       .  S
C1645      C1646   1.349       .  D
C1645      H1647   1.088       .  S
C1646      H1648   1.088       .  S
C1649      C1650   1.340       .  D
C1649      H1651   1.085       .  S
C1650      H1652   1.090       .  S
C1653      C1654   1.338       .  D
C1653      H1655   1.086       .  S
C1654      H1656   1.088       .  S
C1657      C1658   1.339       .  D
C1657      H1659   1.087       .  S
C1658      H1660   1.087       .  S
C1661      C1662   1.341   1_655  D
C1661      H1663   1.086       .  S
C1662      H1664   1.087       .  S
C1665      C1666   1.333       .  D
C1665      H1667   1.088       .  S
C1666      H1668   1.086       .  S
C1669      C1670   1.342       .  D
C1669      H1671   1.086       .  S
C1670      H1672   1.087       .  S
C1673      C1674   1.340       .  D
C1673      H1675   1.086       .  S
C1674      H1676   1.087       .  S
C1677      C1678   1.343       .  D
C1677      H1679   1.086   1_455  S
C1678      H1680   1.087       .  S
C1681      C1682   1.354       .  D
C1681      H1683   1.086       .  S
C1682      H1684   1.086       .  S
C1685      C1686   1.350       .  D
C1685      H1687   1.087       .  S
C1686      H1688   1.087       .  S
C1689      C1690   1.341       .  D
C1689      H1691   1.087       .  S
C1690      H1692   1.086       .  S
C1693      C1694   1.341       .  D
C1693      H1695   1.087       .  S
C1694      H1696   1.086       .  S
C1697      C1698   1.356       .  D
C1697      H1699   1.086       .  S
C1698      H1700   1.086       .  S
C1701      C1702   1.347       .  D
C1701      H1703   1.087       .  S
C1702      H1704   1.086   1_545  S
C1705      C1706   1.358       .  D
C1705      H1707   1.087       .  S
C1706      H1708   1.086       .  S
C1709      C1710   1.320       .  D
C1709      H1711   1.087       .  S
C1710      H1712   1.088       .  S
C1713      C1714   1.340       .  D
C1713      H1715   1.087       .  S
C1714      H1716   1.086       .  S
C1717      C1718   1.319       .  D
C1717      H1719   1.087       .  S
C1718      H1720   1.088       .  S
C1721      C1722   1.343       .  D
C1721      H1723   1.088   1_455  S
C1722      H1724   1.086       .  S
C1725      C1726   1.348       .  D
C1725      H1727   1.086       .  S
C1726      H1728   1.086       .  S
C1729      C1730   1.339       .  D
C1729      H1731   1.088       .  S
C1730      H1732   1.086       .  S
C1733      C1734   1.341       .  D
C1733      H1735   1.086       .  S
C1734      H1736   1.088       .  S
C1737      C1738   1.362   1_655  D
C1737      H1739   1.086       .  S
C1738      H1740   1.086       .  S
C1741      C1742   1.348   1_565  D
C1741      H1743   1.088   1_565  S
C1742      H1744   1.086       .  S
C1745      C1746   1.341       .  D
C1745      H1747   1.086       .  S
C1746      H1748   1.087       .  S
C1749      C1750   1.347       .  D
C1749      H1751   1.086       .  S
C1750      H1752   1.085       .  S
C1753      C1754   1.338   1_655  D
C1753      H1755   1.087       .  S
C1754      H1756   1.088       .  S
C1757      C1758   1.352       .  D
C1757      H1759   1.085       .  S
C1758      H1760   1.082       .  S
C1761      C1762   1.353       .  D
C1761      H1763   1.085   1_545  S
C1762      H1764   1.085       .  S
C1765      C1766   1.342       .  D
C1765      H1767   1.086       .  S
C1766      H1768   1.087       .  S
C1769      C1770   1.344       .  D
C1769      H1771   1.087       .  S
C1770      H1772   1.087       .  S
C1773      C1774   1.343   1_565  D
C1773      H1775   1.086   1_565  S
C1774      H1776   1.087   1_545  S
C1777      C1778   1.334       .  D
C1777      H1779   1.087       .  S
C1778      H1780   1.087   1_665  S
C1781      C1782   1.355       .  D
C1781      H1783   1.086       .  S
C1782      H1784   1.086       .  S
C1785      C1786   1.337       .  D
C1785      H1787   1.087   1_655  S
C1786      H1788   1.087       .  S
C1789      C1790   1.342       .  D
C1789      H1791   1.086       .  S
C1790      H1792   1.087       .  S
C1793      C1794   1.351       .  D
C1793      H1795   1.086       .  S
C1794      H1796   1.087       .  S
C1797      C1798   1.331       .  D
C1797      H1799   1.086       .  S
C1798      H1800   1.085       .  S
C1801      C1802   1.357   1_565  D
C1801      H1803   1.086       .  S
C1802      H1804   1.086       .  S
C1805      C1806   1.335   1_565  D
C1805      H1807   1.088       .  S
C1806      H1808   1.087       .  S
C1809      C1810   1.341       .  D
C1809      H1811   1.086       .  S
C1810      H1812   1.083       .  S
C1813      C1814   1.352       .  D
C1813      H1815   1.086       .  S
C1814      H1816   1.086       .  S
C1817      C1818   1.337       .  D
C1817      H1819   1.087       .  S
C1818      H1820   1.085       .  S
C1821      C1822   1.335       .  D
C1821      H1823   1.087       .  S
C1822      H1824   1.087       .  S
C1825      C1826   1.354       .  D
C1825      H1827   1.087       .  S
C1826      H1828   1.085       .  S
C1829      C1830   1.342   1_655  D
C1829      H1831   1.087       .  S
C1830      H1832   1.086       .  S
C1833      C1834   1.358       .  D
C1833      H1835   1.086       .  S
C1834      H1836   1.087       .  S
C1837      C1838   1.347       .  D
C1837      H1839   1.086       .  S
C1838      H1840   1.087       .  S
C1841      C1842   1.341   1_565  D
C1841      H1843   1.087       .  S
C1842      H1844   1.087       .  S
C1845      C1846   1.346   1_655  D
C1845      H1847   1.087       .  S
C1846      H1848   1.087       .  S
C1849      C1850   1.336       .  D
C1849      H1851   1.087   1_565  S
C1850      H1852   1.087       .  S
C1853      C1854   1.349       .  D
C1853      H1855   1.086       .  S
C1854      H1856   1.086       .  S
C1857      C1858   1.330       .  D
C1857      H1859   1.087       .  S
C1858      H1860   1.087       .  S
C1861      C1862   1.336       .  D
C1861      H1863   1.087       .  S
C1862      H1864   1.087       .  S
C1865      C1866   1.357       .  D
C1865      H1867   1.086       .  S
C1866      H1868   1.087       .  S
C1869      C1870   1.345       .  D
C1869      H1871   1.086       .  S
C1870      H1872   1.087       .  S
C1873      C1874   1.344       .  D
C1873      H1875   1.086       .  S
C1874      H1876   1.086       .  S
C1877      C1878   1.351       .  D
C1877      H1879   1.076       .  S
C1878      H1880   1.085       .  S
C1881      C1882   1.334   1_655  D
C1881      H1883   1.086       .  S
C1882      H1884   1.089   1_455  S
C1885      C1886   1.344       .  D
C1885      H1887   1.086       .  S
C1886      H1888   1.088       .  S
C1889      C1890   1.342       .  D
C1889      H1891   1.087       .  S
C1890      H1892   1.087       .  S
C1893      C1894   1.350       .  D
C1893      H1895   1.086       .  S
C1894      H1896   1.087       .  S
C1897      C1898   1.338       .  D
C1897      H1899   1.087       .  S
C1898      H1900   1.087       .  S
C1901      C1902   1.339   1_556  D
C1901      H1903   1.086   1_556  S
C1902      H1904   1.088   1_554  S
C1905      C1906   1.336   1_655  D
C1905      H1907   1.087       .  S
C1906      H1908   1.086   1_455  S
C1909      C1910   1.349       .  D
C1909      H1911   1.087       .  S
C1910      H1912   1.087       .  S
C1913      C1914   1.355       .  D
C1913      H1915   1.085       .  S
C1914      H1916   1.087       .  S
C1917      C1918   1.342       .  D
C1917      H1919   1.086       .  S
C1918      H1920   1.087       .  S
C1921      C1922   1.342       .  D
C1921      H1923   1.087   1_655  S
C1922      H1924   1.087       .  S
C1925      C1926   1.342   1_556  D
C1925      H1927   1.086       .  S
C1926      H1928   1.087       .  S
C1929      C1930   1.351       .  D
C1929      H1931   1.086   1_556  S
C1930      H1932   1.087       .  S
C1933      C1934   1.346       .  D
C1933      H1935   1.087       .  S
C1934      H1936   1.086       .  S
C1937      C1938   1.338       .  D
C1937      H1939   1.088       .  S
C1938      H1940   1.086       .  S
C1941      C1942   1.358       .  D
C1941      H1943   1.087       .  S
C1942      H1944   1.085       .  S
C1945      C1946   1.343       .  D
C1945      H1947   1.085       .  S
C1946      H1948   1.086       .  S
C1949      C1950   1.336   1_556  D
C1949      H1951   1.087       .  S
C1950      H1952   1.086       .  S
C1953      C1954   1.363       .  D
C1953      H1955   1.086       .  S
C1954      H1956   1.087       .  S
C1957      C1958   1.354   1_655  D
C1957      H1959   1.086       .  S
C1958      H1960   1.086       .  S
C1961      C1962   1.353   1_554  D
C1961      H1963   1.087       .  S
C1962      H1964   1.086       .  S
C1965      C1966   1.350       .  D
C1965      H1967   1.086       .  S
C1966      H1968   1.086   1_554  S
C1969      C1970   1.328       .  D
C1969      H1971   1.088       .  S
C1970      H1972   1.087   1_655  S
C1973      C1974   1.340       .  D
C1973      H1975   1.087       .  S
C1974      H1976   1.086       .  S
C1977      C1978   1.342       .  D
C1977      H1979   1.086       .  S
C1978      H1980   1.087       .  S
C1981      C1982   1.349       .  D
C1981      H1983   1.086       .  S
C1982      H1984   1.087       .  S
C1985      C1986   1.351       .  D
C1985      H1987   1.087       .  S
C1986      H1988   1.088       .  S
C1989      C1990   1.339       .  D
C1989      H1991   1.086       .  S
C1990      H1992   1.088       .  S
C1993      C1994   1.335       .  D
C1993      H1995   1.087       .  S
C1994      H1996   1.087       .  S
C1997      C1998   1.332       .  D
C1997      H1999   1.086       .  S
C1998      H2000   1.088       .  S
C2001      C2002   1.332   1_655  D
C2001      H2003   1.087   1_655  S
C2002      H2004   1.086       .  S
C2005      C2006   1.359       .  D
C2005      H2007   1.086       .  S
C2006      H2008   1.085       .  S
C2009      C2010   1.342       .  D
C2009      H2011   1.087       .  S
C2010      H2012   1.087       .  S
C2013      C2014   1.346       .  D
C2013      H2015   1.088       .  S
C2014      H2016   1.086       .  S
C2017      C2018   1.351       .  D
C2017      H2019   1.087       .  S
C2018      H2020   1.085       .  S
C2021      C2022   1.351       .  D
C2021      H2023   1.086       .  S
C2022      H2024   1.082       .  S
C2025      C2026   1.352   1_565  D
C2025      H2027   1.086       .  S
C2026      H2028   1.086       .  S
C2029      C2030   1.335   1_556  D
C2029      H2031   1.089       .  S
C2030      H2032   1.086       .  S
C2033      C2034   1.357       .  D
C2033      H2035   1.086       .  S
C2034      H2036   1.086       .  S
C2037      C2038   1.340       .  D
C2037      H2039   1.085       .  S
C2038      H2040   1.090       .  S
C2041      C2042   1.342       .  D
C2041      H2043   1.087       .  S
C2042      H2044   1.087       .  S
C2045      C2046   1.341       .  D
C2045      H2047   1.087   1_556  S
C2046      H2048   1.087       .  S
C2049      C2050   1.332   1_565  D
C2049      H2051   1.088   1_565  S
C2050      H2052   1.086       .  S
C2053      C2054   1.332       .  D
C2053      H2055   1.087       .  S
C2054      H2056   1.087       .  S
C2057      C2058   1.343       .  D
C2057      H2059   1.086       .  S
C2058      H2060   1.084       .  S
C2061      C2062   1.330       .  D
C2061      H2063   1.087       .  S
C2062      H2064   1.088       .  S
C2065      C2066   1.341   1_565  D
C2065      H2067   1.087       .  S
C2066      H2068   1.086       .  S
C2069      C2070   1.350   1_556  D
C2069      H2071   1.085       .  S
C2070      H2072   1.088       .  S
C2073      C2074   1.346   1_565  D
C2073      H2075   1.088       .  S
C2074      H2076   1.086   1_556  S
C2077      C2078   1.340       .  D
C2077      H2079   1.089       .  S
C2078      H2080   1.085       .  S
C2081      C2082   1.345       .  D
C2081      H2083   1.087       .  S
C2082      H2084   1.086       .  S
C2085      C2086   1.352       .  D
C2085      H2087   1.086       .  S
C2086      H2088   1.086       .  S
C2089      C2090   1.362   1_556  D
C2089      H2091   1.086       .  S
C2090      H2092   1.086       .  S
C2093      C2094   1.325       .  D
C2093      H2095   1.089       .  S
C2094      H2096   1.088       .  S
C2097      C2098   1.343       .  D
C2097      H2099   1.085       .  S
C2098      H2100   1.086       .  S
C2101      C2102   1.342   1_565  D
C2101      H2103   1.087       .  S
C2102      H2104   1.086   1_545  S
C2105      C2106   1.343   1_556  D
C2105      H2107   1.086       .  S
C2106      H2108   1.087       .  S
C2109      C2110   1.346   1_556  D
C2109      H2111   1.089       .  S
C2110      H2112   1.086       .  S
C2113      C2114   1.336       .  D
C2113      H2115   1.087   1_565  S
C2114      H2116   1.087       .  S
C2117      C2118   1.353       .  D
C2117      H2119   1.086       .  S
C2118      H2120   1.086       .  S
C2121      C2122   1.340       .  D
C2121      H2123   1.086       .  S
C2122      H2124   1.087       .  S
C2125      C2126   1.352       .  D
C2125      H2127   1.086       .  S
C2126      H2128   1.087       .  S
C2129      C2130   1.347       .  D
C2129      H2131   1.087       .  S
C2130      H2132   1.087       .  S
C2133      C2134   1.350       .  D
C2133      H2135   1.087       .  S
C2134      H2136   1.087       .  S
C2137      C2138   1.346       .  D
C2137      H2139   1.086       .  S
C2138      H2140   1.087       .  S
C2141      C2142   1.338       .  D
C2141      H2143   1.087       .  S
C2142      H2144   1.087       .  S
C2145      C2146   1.345   1_565  D
C2145      H2147   1.086       .  S
C2146      H2148   1.087       .  S
C2149      C2150   1.350   1_565  D
C2149      H2151   1.086       .  S
C2150      H2152   1.087       .  S
C2153      C2154   1.341       .  D
C2153      H2155   1.086       .  S
C2154      H2156   1.087       .  S
C2157      C2158   1.364       .  D
C2157      H2159   1.085       .  S
C2158      H2160   1.087       .  S
