geometry optimzed in LAMMPS
_audit_creation_date              2020-11-30 
_audit_creation_method            'lammps2cif' 
_symmetry_space_group_name_H-M    'P1' 
_symmetry_Int_Tables_number       1 
_symmetry_cell_setting            triclinic 
loop_ 
_symmetry_equiv_pos_as_xyz 
  x,y,z 
_cell_length_a                    39.38798682 
_cell_length_b                    32.818711285346446 
_cell_length_c                    33.3633239398042 
_cell_angle_alpha                 89.76755496613627 
_cell_angle_beta                  90.6767941520349 
_cell_angle_gamma                 90.02202742660543 
loop_ 
_atom_site_label 
_atom_site_type_symbol 
_atom_site_fract_x 
_atom_site_fract_y 
_atom_site_fract_z 
_atom_site_charge 
O1          O  0.32440651  0.89360451  0.35767868    -0.57000
C2          C  0.32740538  0.94128774  0.45707266     0.75600
O3          O  0.31574191  0.81062329  0.47171152    -0.58200
C4          C  0.32712525  0.86124363  0.33740272     0.75600
C5          C  0.40810372  0.84313624  0.43593767     0.78000
Cd6        Cd  0.33681063  0.86174398  0.42323306     1.37500
O7          O  0.33715454  0.93665896  0.42134139    -0.57000
O8          O  0.39001070  0.82281894  0.41169823    -0.55800
C9          C  0.28496442  0.81322320  0.46062151     0.78000
O10         O  0.39279605  0.87026917  0.45540496    -0.58200
O11         O  0.32123063  0.90903632  0.47656088    -0.56600
O12         O  0.33316167  0.82899267  0.35715724    -0.56600
O13         O  0.27881639  0.83666624  0.43129559    -0.55800
O14         O  0.14111705  0.64877846  0.64466570    -0.57000
C15         C  0.13739531  0.59783052  0.54607403     0.75600
O16         O  0.07181414  0.71515587  0.58742411    -0.58200
C17         C  0.13557152  0.68091882  0.66437055     0.75600
C18         C  0.17782152  0.72789600  0.54347413     0.78000
Cd19       Cd  0.12609303  0.67760793  0.57882973     1.37500
O20         O  0.12548835  0.60260884  0.58087847    -0.57000
O21         O  0.18419543  0.70283560  0.57137780    -0.55800
C22         C  0.05400689  0.69228299  0.56518269     0.78000
O23         O  0.14697066  0.73091910  0.53265786    -0.58200
O24         O  0.14477620  0.63001562  0.52704348    -0.56600
O25         O  0.12627363  0.71174938  0.64419035    -0.56600
O26         O  0.06997105  0.66458947  0.54721349    -0.55800
O27         O  0.15249672  0.38898701  0.36056264    -0.57000
C28         C  0.14033916  0.44009887  0.46927529     0.75600
O29         O  0.08101969  0.33152992  0.45086960    -0.58200
C30         C  0.14481005  0.35703894  0.34135868     0.75600
C31         C  0.18507531  0.31355224  0.46460589     0.78000
Cd32       Cd  0.13441424  0.36416243  0.42655596     1.37500
O33         O  0.15306217  0.43564605  0.43487446    -0.57000
O34         O  0.19199167  0.34743536  0.44855473    -0.55800
C35         C  0.06180605  0.35541899  0.43103880     0.78000
O36         O  0.15433205  0.30235518  0.46244335    -0.58200
O37         O  0.12572719  0.40918960  0.48383369    -0.56600
O38         O  0.13338415  0.32767891  0.36189167    -0.56600
O39         O  0.07653094  0.38158747  0.40943923    -0.55800
O40         O  0.32336112  0.09795539  0.57662012    -0.57000
C41         C  0.33049907  0.17880099  0.66777217     0.75600
O42         O  0.39513744  0.19919661  0.55874661    -0.58200
C43         C  0.32983139  0.09529616  0.53964158     0.75600
C44         C  0.29013218  0.22056238  0.54603321     0.78000
Cd45       Cd  0.34063550  0.16959590  0.58305391     1.37500
O46         O  0.32540605  0.14532668  0.64994827    -0.57000
O47         O  0.28282134  0.18793062  0.56427442    -0.55800
C48         C  0.41344318  0.17679893  0.58127128     0.78000
O49         O  0.32122040  0.23062686  0.54605041    -0.58200
O50         O  0.33853413  0.20879729  0.64581842    -0.56600
O51         O  0.34132362  0.12708347  0.52306144    -0.56600
O52         O  0.39784986  0.15170700  0.60314788    -0.55800
O53         O  0.14708195  0.44329663  0.07688972    -0.57000
C54         C  0.14684165  0.36080168  0.16819252     0.75600
O55         O  0.07973013  0.33464540  0.06934896    -0.58200
C56         C  0.13917646  0.44549655  0.03996394     0.75600
C57         C  0.18712961  0.32456544  0.04376814     0.78000
Cd58       Cd  0.13498264  0.37027423  0.08331518     1.37500
O59         O  0.15591662  0.39248387  0.14937785    -0.57000
O60         O  0.19333024  0.35540564  0.06517859    -0.55800
C61         C  0.06200990  0.36547372  0.07864253     0.78000
O62         O  0.15622422  0.31378395  0.04121833    -0.58200
O63         O  0.13359786  0.33273952  0.14728307    -0.56600
O64         O  0.13051519  0.41249145  0.02322873    -0.56600
O65         O  0.07829573  0.39644028  0.09036445    -0.55800
O66         O  0.32911762  0.15823834  0.86221636    -0.57000
C67         C  0.33771904  0.10956784  0.96260014     0.75600
O68         O  0.40293323  0.17094103  0.95254560    -0.58200
C69         C  0.33580093  0.18908228  0.84086006     0.75600
C70         C  0.29386528  0.23648086  0.96299768     0.78000
Cd71       Cd  0.34630645  0.18821089  0.92656478     1.37500
O72         O  0.33285262  0.14215888  0.98189976    -0.57000
O73         O  0.28759392  0.20881558  0.93778883    -0.55800
C74         C  0.41825575  0.20199079  0.93955111     0.78000
O75         O  0.32497323  0.24314596  0.97060895    -0.58200
O76         O  0.34600037  0.11359743  0.92619751    -0.56600
O77         O  0.34678569  0.22003201  0.85939252    -0.56600
O78         O  0.39989064  0.22851109  0.92223271    -0.55800
O79         O  0.31490422  0.89781534  0.14381475    -0.57000
C80         C  0.32979855  0.95013960  0.03680428     0.75600
O81         O  0.38770825  0.83574836  0.06261672    -0.58200
C82         C  0.32515264  0.86723931  0.16371466     0.75600
C83         C  0.28113420  0.82549800  0.03954184     0.78000
Cd84       Cd  0.33375322  0.87341468  0.07798196     1.37500
O85         O  0.32299902  0.94661086  0.07368128    -0.57000
O86         O  0.27474243  0.85760381  0.05883543    -0.55800
C87         C  0.40635541  0.86624074  0.07077183     0.78000
O88         O  0.31208508  0.81503040  0.03848139    -0.58200
O89         O  0.33674649  0.91751554  0.01850036    -0.56600
O90         O  0.33804349  0.83862749  0.14362255    -0.56600
O91         O  0.39113557  0.89791154  0.08206962    -0.55800
O92         O  0.12089050  0.60546077  0.92355711    -0.57000
C93         C  0.13534326  0.68383062  0.83759639     0.75600
O94         O  0.07226303  0.68023060  0.96310379    -0.58200
C95         C  0.13343691  0.60158694  0.95856036     0.75600
C96         C  0.17663428  0.73145068  0.95826852     0.78000
Cd97       Cd  0.12475054  0.68097832  0.92288546     1.37500
O98         O  0.13732485  0.65082103  0.85729957    -0.57000
O99         O  0.18336960  0.69976473  0.93852847    -0.55800
C100        C  0.05416451  0.69999658  0.93833369     0.78000
O101        O  0.14550820  0.74065422  0.96070381    -0.58200
O102        O  0.12937599  0.71557343  0.85767015    -0.56600
O103        O  0.14233092  0.63415692  0.97583535    -0.56600
O104        O  0.06909002  0.71227083  0.90724015    -0.55800
O105        O  0.64097760  0.88857186  0.36167006    -0.57000
C106        C  0.63311586  0.93331100  0.46488183     0.75600
O107        O  0.57026139  0.86534657  0.45631231    -0.58200
C108        C  0.63466905  0.85743483  0.34051620     0.75600
C109        C  0.67761928  0.80527108  0.46237562     0.78000
Cd110      Cd  0.62595682  0.85581697  0.42601293     1.37500
O111        O  0.62869788  0.93075109  0.42725061    -0.57000
O112        O  0.68446686  0.83489305  0.43958337    -0.55800
C113        C  0.55439393  0.83910249  0.43584302     0.78000
O114        O  0.64640921  0.79775974  0.46719577    -0.58200
O115        O  0.63477539  0.89995660  0.48395068    -0.56600
O116        O  0.62573621  0.82575610  0.35931294    -0.56600
O117        O  0.57204849  0.81864843  0.41178300    -0.55800
O118        O  0.83462865  0.63908789  0.65471039    -0.57000
C119        C  0.82516053  0.59418783  0.55108904     0.75600
O120        O  0.81404575  0.72547965  0.54322019    -0.58200
C121        C  0.83154949  0.67196175  0.67404467     0.75600
C122        C  0.90767974  0.68904895  0.57303928     0.78000
Cd123      Cd  0.83654173  0.67170585  0.58773678     1.37500
O124        O  0.82490179  0.59827007  0.58883988    -0.57000
O125        O  0.89245010  0.65855623  0.55853243    -0.55800
C126        C  0.78302062  0.71870297  0.55012637     0.78000
O127        O  0.88971955  0.71288124  0.59362357    -0.58200
O128        O  0.82966139  0.62630133  0.53073130    -0.56600
O129        O  0.83036099  0.70433249  0.65329157    -0.56600
O130        O  0.77692344  0.69171146  0.57618097    -0.55800
O131        O  0.82310411  0.43281489  0.43569056    -0.57000
C132        C  0.83375739  0.35484772  0.34935967     0.75600
O133        O  0.89663027  0.32662826  0.45471225    -0.58200
C134        C  0.82891869  0.43829320  0.47260566     0.75600
C135        C  0.79187759  0.30835945  0.47089569     0.78000
Cd136      Cd  0.84179122  0.36124351  0.43500369     1.37500
O137        O  0.82087653  0.38360530  0.36922501    -0.57000
O138        O  0.78515617  0.33159735  0.44158715    -0.55800
C139        C  0.91483780  0.35487646  0.44030221     0.78000
O140        O  0.82252996  0.30799136  0.48278554    -0.58200
O141        O  0.84917439  0.32760196  0.36950988    -0.56600
O142        O  0.84009146  0.40788451  0.49206971    -0.56600
O143        O  0.89908812  0.38499663  0.42545996    -0.55800
O144        O  0.65211474  0.14617931  0.65014624    -0.57000
C145        C  0.63677036  0.09006612  0.54386608     0.75600
O146        O  0.57888000  0.20031780  0.55971449    -0.58200
C147        C  0.64215548  0.17780752  0.66821721     0.75600
C148        C  0.68430149  0.21727225  0.54760363     0.78000
Cd149      Cd  0.63253337  0.16753361  0.58373230     1.37500
O150        O  0.62821202  0.12242332  0.52573828    -0.57000
O151        O  0.69126163  0.18817103  0.57126358    -0.55800
C152        C  0.56028650  0.17802234  0.58153417     0.78000
O153        O  0.65303687  0.22428105  0.54140935    -0.58200
O154        O  0.64423760  0.09364682  0.58068920    -0.56600
O155        O  0.62937024  0.20577870  0.64657529    -0.56600
O156        O  0.57545304  0.15220963  0.60346841    -0.55800
O157        O  0.82197725  0.39490049  0.15728656    -0.57000
C158        C  0.82728575  0.45205211  0.05414299     0.75600
O159        O  0.89595526  0.33657260  0.07690628    -0.58200
C160        C  0.83432222  0.36466964  0.17606419     0.75600
C161        C  0.79176027  0.32359687  0.05162511     0.78000
Cd162      Cd  0.84196868  0.37444059  0.09054838     1.37500
O163        O  0.83004073  0.44821898  0.09181758    -0.57000
O164        O  0.78540892  0.34367780  0.08289925    -0.55800
C165        C  0.91469282  0.36791148  0.07899554     0.78000
O166        O  0.82204274  0.32536500  0.03940152    -0.58200
O167        O  0.83019433  0.41974510  0.03392568    -0.56600
O168        O  0.84976547  0.33866933  0.15508311    -0.56600
O169        O  0.89959129  0.40115612  0.08550921    -0.55800
O170        O  0.64843094  0.15283287  0.86286292    -0.57000
C171        C  0.64581129  0.10639459  0.96328885     0.75600
O172        O  0.65683091  0.23719195  0.97387220    -0.58200
C173        C  0.64278917  0.18402874  0.84143808     0.75600
C174        C  0.56480336  0.19967437  0.94007471     0.78000
Cd175      Cd  0.63616877  0.18493565  0.92709009     1.37500
O176        O  0.63958200  0.11031168  0.92613204    -0.57000
O177        O  0.58269697  0.22553112  0.92162531    -0.55800
C178        C  0.68773894  0.23487533  0.96424246     0.78000
O179        O  0.58035468  0.16883438  0.95346608    -0.58200
O180        O  0.64891932  0.13902900  0.98306816    -0.56600
O181        O  0.63501701  0.21623243  0.85995894    -0.56600
O182        O  0.69462056  0.21054516  0.93619453    -0.55800
O183        O  0.64152424  0.89831817  0.14833904    -0.57000
C184        C  0.63837381  0.94933323  0.04107849     0.75600
O185        O  0.64694278  0.82096844  0.03510515    -0.58200
C186        C  0.63323198  0.86638502  0.16718012     0.75600
C187        C  0.55336789  0.86588020  0.07273725     0.78000
Cd188      Cd  0.62598647  0.87358182  0.08160504     1.37500
O189        O  0.64460168  0.94508424  0.07817235    -0.57000
O190        O  0.56808590  0.89746751  0.08578906    -0.55800
C191        C  0.67778600  0.82398705  0.04588069     0.78000
O192        O  0.57246394  0.83639857  0.06336849    -0.58200
O193        O  0.62678835  0.91836864  0.02312017    -0.56600
O194        O  0.62216626  0.83710358  0.14609228    -0.56600
O195        O  0.68404517  0.84848488  0.07413327    -0.55800
O196        O  0.83578855  0.64787979  0.86912634    -0.57000
C197        C  0.82595945  0.60772718  0.97325281     0.75600
O198        O  0.89382483  0.67706979  0.96503651    -0.58200
C199        C  0.83141443  0.67947619  0.84774441     0.75600
C200        C  0.78430252  0.73463815  0.96662322     0.78000
Cd201      Cd  0.83710789  0.68444302  0.93388920     1.37500
O202        O  0.83145530  0.64009097  0.99275882    -0.57000
O203        O  0.77814822  0.70797663  0.94031059    -0.55800
C204        C  0.90831888  0.70439348  0.94471167     0.78000
O205        O  0.81516284  0.73918486  0.97658723    -0.58200
O206        O  0.82483379  0.61125297  0.93545521    -0.56600
O207        O  0.82893276  0.71280229  0.86646014    -0.56600
O208        O  0.88939269  0.72452556  0.92106813    -0.55800
C209        C  0.70511964  0.80089363  0.02596586    -0.04600
C210        C  0.69796742  0.77983871  0.99026762    -0.32100
C211        C  0.72348711  0.75871636  0.97018458     0.37200
C212        C  0.75696856  0.75833854  0.98571658    -0.05000
C213        C  0.76415852  0.77966066  0.02119235    -0.32000
C214        C  0.73863719  0.80049103  0.04143001     0.37100
H215        H  0.67249409  0.77987683  0.97765595     0.17400
O216        O  0.71525819  0.73841220  0.93555369    -0.59500
H217        H  0.78961002  0.77958257  0.03387563     0.17500
O218        O  0.74687067  0.82021619  0.07638421    -0.59600
H219        H  0.74440578  0.79939895  0.09778247     0.44500
H220        H  0.71996820  0.75799523  0.91361347     0.44400
C221        C  0.64353079  0.98864304  0.02014650    -0.04600
C222        C  0.65295324  0.02320427  0.04232665    -0.32100
C223        C  0.65515600  0.06149643  0.02401022     0.37200
C224        C  0.64782926  0.06583831  0.98270557    -0.05000
C225        C  0.64002946  0.03095665  0.96018116    -0.32000
C226        C  0.63769388  0.99270038  0.97851194     0.37100
H227        H  0.65779108  0.02084139  0.07428689     0.17400
O228        O  0.66328938  0.09458840  0.04718972    -0.59500
H229        H  0.63463009  0.03340175  0.92834464     0.17500
O230        O  0.62942602  0.95961480  0.95536926    -0.59600
H231        H  0.60427822  0.95989117  0.95324609     0.44500
H232        H  0.68837816  0.09672428  0.04610374     0.44400
C233        C  0.82220143  0.56788743  0.99369835    -0.04600
C234        C  0.82183263  0.56619196  0.03580364    -0.32100
C235        C  0.82178897  0.52876988  0.05608855     0.37200
C236        C  0.82245865  0.49207474  0.03424434    -0.05000
C237        C  0.82102269  0.49384035  0.99218526    -0.32000
C238        C  0.82102693  0.53117710  0.97192574     0.37100
H239        H  0.82242037  0.59398109  0.05322014     0.17400
O240        O  0.82259013  0.52860302  0.09719686    -0.59500
H241        H  0.82110204  0.46611150  0.97467624     0.17500
O242        O  0.82077997  0.53122761  0.93080892    -0.59600
H243        H  0.84490709  0.52833467  0.92313591     0.44500
H244        H  0.79846490  0.52994263  0.10528880     0.44400
C245        C  0.76509000  0.30037046  0.02981233    -0.04600
C246        C  0.77196278  0.28470160  0.99160780    -0.32100
C247        C  0.74689041  0.26420790  0.96944469     0.37200
C248        C  0.71433526  0.25840002  0.98564031    -0.05000
C249        C  0.70739075  0.27422143  0.02369417    -0.32000
C250        C  0.73227617  0.29518154  0.04563797     0.37100
H251        H  0.79675651  0.28886376  0.97848108     0.17400
O252        O  0.75448896  0.25033232  0.93188250    -0.59500
H253        H  0.68260183  0.26997558  0.03682504     0.17500
O254        O  0.72431331  0.30970313  0.08285392    -0.59600
H255        H  0.71320080  0.33638701  0.07783530     0.44500
H256        H  0.74794576  0.27283703  0.91337302     0.44400
C257        C  0.64431928  0.18092219  0.71241013    -0.04600
C258        C  0.65374177  0.14638946  0.73488241    -0.32100
C259        C  0.65372176  0.14701216  0.77674490     0.37200
C260        C  0.64448245  0.18283302  0.79714943    -0.05000
C261        C  0.63563648  0.21763873  0.77469439    -0.32000
C262        C  0.63553436  0.21694714  0.73275785     0.37100
H263        H  0.66056583  0.11832613  0.72000643     0.17400
O264        O  0.66288025  0.11234480  0.79726538    -0.59500
H265        H  0.62835848  0.24549530  0.78963708     0.17500
O266        O  0.62617581  0.25146942  0.71213388    -0.59600
H267        H  0.64752345  0.26702917  0.70851877     0.44500
H268        H  0.64179787  0.09590665  0.79896359     0.44400
C269        C  0.83168221  0.36026031  0.22020270    -0.04600
C270        C  0.85113722  0.33038483  0.24015709    -0.32100
C271        C  0.85126122  0.32725824  0.28203418     0.37200
C272        C  0.83164147  0.35431065  0.30494082    -0.05000
C273        C  0.81129121  0.38328347  0.28490777    -0.32000
C274        C  0.81112182  0.38636528  0.24305260     0.37100
H275        H  0.86716168  0.30997559  0.22333777     0.17400
O276        O  0.87207782  0.29904537  0.30018561    -0.59500
H277        H  0.79585632  0.40431829  0.30176366     0.17500
O278        O  0.79140209  0.41576557  0.22501818    -0.59600
H279        H  0.76901348  0.40267160  0.22041241     0.44500
H280        H  0.85894293  0.27328433  0.29996558     0.44400
C281        C  0.76487936  0.28402700  0.49037875    -0.04600
C282        C  0.73120703  0.28762682  0.47631518    -0.32100
C283        C  0.70469275  0.26667811  0.49487806     0.37200
C284        C  0.71150672  0.24113969  0.52806864    -0.05000
C285        C  0.74518272  0.23732694  0.54203148    -0.32000
C286        C  0.77170877  0.25839253  0.52353390     0.37100
H287        H  0.72521881  0.30700073  0.45083260     0.17400
O288        O  0.67241644  0.27047322  0.47943698    -0.59500
H289        H  0.75108183  0.21789062  0.56749833     0.17500
O290        O  0.80406268  0.25403403  0.53857169    -0.59600
H291        H  0.81356762  0.23018550  0.52439921     0.44500
H292        H  0.66321541  0.29559668  0.49162802     0.44400
C293        C  0.82996628  0.67303488  0.71846478    -0.04600
C294        C  0.83104038  0.71086932  0.73793263    -0.32100
C295        C  0.83073414  0.71341252  0.77974128     0.37200
C296        C  0.82984259  0.67763282  0.80329777    -0.05000
C297        C  0.82827601  0.63970868  0.78388888    -0.32000
C298        C  0.82800789  0.63721168  0.74191691     0.37100
H299        H  0.83246905  0.73885895  0.72070678     0.17400
O300        O  0.83246113  0.75115196  0.79714318    -0.59500
H301        H  0.82727825  0.61178602  0.80127257     0.17500
O302        O  0.82618944  0.59956999  0.72431076    -0.59600
H303        H  0.80155038  0.59391685  0.72106736     0.44500
H304        H  0.80858624  0.76059031  0.79859372     0.44400
C305        C  0.82385927  0.47812858  0.49208437    -0.04600
C306        C  0.82333264  0.48005363  0.53408670    -0.32100
C307        C  0.82231610  0.51750666  0.55380139     0.37200
C308        C  0.82180528  0.55405266  0.53145775    -0.05000
C309        C  0.82058926  0.55204985  0.48938371    -0.32000
C310        C  0.82161960  0.51456390  0.46966539     0.37100
H311        H  0.82455074  0.45239270  0.55188360     0.17400
O312        O  0.82262782  0.51789570  0.59491042    -0.59500
H313        H  0.81987262  0.57969872  0.47153271     0.17500
O314        O  0.82153942  0.51411244  0.42854634    -0.59600
H315        H  0.84569627  0.51714762  0.42094932     0.44500
H316        H  0.84689856  0.51568841  0.60284002     0.44400
C317        C  0.63659334  0.85832354  0.29618292    -0.04600
C318        C  0.64867649  0.89335737  0.27670203    -0.32100
C319        C  0.64851640  0.89610862  0.23481911     0.37200
C320        C  0.63575621  0.86359822  0.21146933    -0.05000
C321        C  0.62434039  0.82826581  0.23095780    -0.32000
C322        C  0.62488403  0.82531352  0.27278380     0.37100
H323        H  0.65791047  0.91905125  0.29396638     0.17400
O324        O  0.66008364  0.93122002  0.21721069    -0.59500
H325        H  0.61449317  0.80284423  0.21376785     0.17500
O326        O  0.61266674  0.79050792  0.29036195    -0.59600
H327        H  0.63223951  0.77151291  0.29145127     0.44500
H328        H  0.68467685  0.92662549  0.21306690     0.44400
C329        C  0.63738262  0.05016088  0.52332375    -0.04600
C330        C  0.63965900  0.01415394  0.54607365    -0.32100
C331        C  0.63886588  0.97595542  0.52756573     0.37200
C332        C  0.63564032  0.97316803  0.48544731    -0.05000
C333        C  0.63399834  0.00921328  0.46271274    -0.32000
C334        C  0.63471514  0.04736880  0.48122411     0.37100
H335        H  0.64158258  0.01550530  0.57846523     0.17400
O336        O  0.64041452  0.94165547  0.55114497    -0.59500
H337        H  0.63180791  0.00795110  0.43034274     0.17500
O338        O  0.63337057  0.08171547  0.45769973    -0.59600
H339        H  0.60891920  0.08600454  0.45167438     0.44500
H340        H  0.66498430  0.93586871  0.55469186     0.44400
C341        C  0.70460477  0.78171033  0.48328813    -0.04600
C342        C  0.69584419  0.75321661  0.51294289    -0.32100
C343        C  0.72092516  0.73270575  0.53523234     0.37200
C344        C  0.75560158  0.74048817  0.52805457    -0.05000
C345        C  0.76427759  0.76848610  0.49794309    -0.32000
C346        C  0.73925622  0.78870338  0.47548010     0.37100
H347        H  0.66941581  0.74715148  0.51936668     0.17400
O348        O  0.71112865  0.70482349  0.56356403    -0.59500
H349        H  0.79067405  0.77462213  0.49142283     0.17500
O350        O  0.74912617  0.81550214  0.44619317    -0.59600
H351        H  0.75142072  0.79877157  0.42166735     0.44500
H352        H  0.70765020  0.72084645  0.58831739     0.44400
C353        C  0.01732484  0.70686844  0.94416648    -0.04600
C354        C  0.99870642  0.72852726  0.91488612    -0.32100
C355        C  0.96322805  0.73036502  0.91604714     0.37200
C356        C  0.94560113  0.71027656  0.94691747    -0.05000
C357        C  0.96431711  0.69113162  0.97775630    -0.32000
C358        C  0.99979863  0.68911295  0.97650621     0.37100
H359        H  0.01153235  0.74260153  0.88983461     0.17400
O360        O  0.94606674  0.74899337  0.88502220    -0.59500
H361        H  0.95134632  0.67585890  0.00202507     0.17500
O362        O  0.01684760  0.66829783  0.00625777    -0.59600
H363        H  0.01596428  0.63926180  0.99813573     0.44500
H364        H  0.94590147  0.77836412  0.89186135     0.44400
C365        C  0.44393099  0.86565151  0.06806931    -0.04600
C366        C  0.46166816  0.82871750  0.06413147    -0.32100
C367        C  0.49737933  0.82797787  0.06473593     0.37200
C368        C  0.51583684  0.86459941  0.06909213    -0.05000
C369        C  0.49798269  0.90144729  0.07147593    -0.32000
C370        C  0.46261243  0.90227234  0.07101086     0.37100
H371        H  0.44788467  0.80025545  0.06162274     0.17400
O372        O  0.51382426  0.79131322  0.06183851    -0.59500
H373        H  0.51149676  0.93010194  0.07407883     0.17500
O374        O  0.44663460  0.93935812  0.07291472    -0.59600
H375        H  0.44679106  0.94662305  0.10175061     0.44500
H376        H  0.51642046  0.78139406  0.08983859     0.44400
C377        C  0.20358754  0.75590270  0.97808573    -0.04600
C378        C  0.19461640  0.78943182  0.00170852    -0.32100
C379        C  0.21938610  0.81214033  0.02213210     0.37200
C380        C  0.25405475  0.80171924  0.01897385    -0.05000
C381        C  0.26298863  0.76825124  0.99523583    -0.32000
C382        C  0.23823499  0.74557779  0.97480107     0.37100
H383        H  0.16820612  0.79796794  0.00477092     0.17400
O384        O  0.20928024  0.84455323  0.04489597    -0.59500
H385        H  0.28937733  0.75961535  0.99223970     0.17500
O386        O  0.24832319  0.71307037  0.95214525    -0.59600
H387        H  0.25307521  0.72462424  0.92527158     0.44500
H388        H  0.20382465  0.83276843  0.07147802     0.44400
C389        C  0.45569441  0.20560089  0.94331769    -0.04600
C390        C  0.47346701  0.17707945  0.96700770    -0.32100
C391        C  0.50891689  0.17618935  0.96780911     0.37200
C392        C  0.52755821  0.20394332  0.94428356    -0.05000
C393        C  0.50989545  0.23378626  0.92207554    -0.32000
C394        C  0.47428431  0.23465839  0.92129725     0.37100
H395        H  0.45983727  0.15458516  0.98441587     0.17400
O396        O  0.52494599  0.14699538  0.99068291    -0.59500
H397        H  0.52364095  0.25550480  0.90387858     0.17500
O398        O  0.45803868  0.26314324  0.89780262    -0.59600
H399        H  0.45643923  0.25074488  0.87076732     0.44500
H400        H  0.52966382  0.16025273  0.01682032     0.44400
C401        C  0.33445466  0.06888662  0.98153775    -0.04600
C402        C  0.34088737  0.03382307  0.95883236    -0.32100
C403        C  0.33894753  0.99495811  0.97603720     0.37200
C404        C  0.33042999  0.99049806  0.01679269    -0.05000
C405        C  0.32374303  0.02555025  0.03937605    -0.32000
C406        C  0.32583158  0.06439391  0.02224284     0.37100
H407        H  0.34776676  0.03643736  0.92758093     0.17400
O408        O  0.34626909  0.96175133  0.95286424    -0.59500
H409        H  0.31724567  0.02301340  0.07075103     0.17500
O410        O  0.31925329  0.09764667  0.04568194    -0.59600
H411        H  0.34091656  0.10348383  0.05999868     0.44500
H412        H  0.32432890  0.95378507  0.94029714     0.44400
C413        C  0.02431281  0.36603892  0.07619295    -0.04600
C414        C  0.00593750  0.33022607  0.06800127    -0.32100
C415        C  0.97023126  0.33033395  0.06729598     0.37200
C416        C  0.95227632  0.36655206  0.07545403    -0.05000
C417        C  0.97076966  0.40251713  0.08209722    -0.32000
C418        C  0.00619348  0.40259615  0.08232807     0.37100
H419        H  0.01922735  0.30192623  0.06257162     0.17400
O420        O  0.95329321  0.29472317  0.05934501    -0.59500
H421        H  0.95775524  0.43092742  0.08791327     0.17500
O422        O  0.02272258  0.43871723  0.08939635    -0.59600
H423        H  0.02603341  0.45106239  0.06255753     0.44500
H424        H  0.95029915  0.29426102  0.02977514     0.44400
C425        C  0.13935665  0.48475374  0.01789651    -0.04600
C426        C  0.14993910  0.52019615  0.03780880    -0.32100
C427        C  0.14875750  0.55815113  0.01870260     0.37200
C428        C  0.13684709  0.56139702  0.97870892    -0.05000
C429        C  0.12692406  0.52581791  0.95846219    -0.32000
C430        C  0.12799548  0.48780647  0.97767746     0.37100
H431        H  0.15888117  0.51869337  0.06861528     0.17400
O432        O  0.15934966  0.59182636  0.03961355    -0.59500
H433        H  0.11779011  0.52744337  0.92774057     0.17500
O434        O  0.11772393  0.45397633  0.95678472    -0.59600
H435        H  0.09285486  0.45221588  0.96087614     0.44500
H436        H  0.13918148  0.60094517  0.05466828     0.44400
C437        C  0.26629500  0.25929389  0.98281353    -0.04600
C438        C  0.27419176  0.29384060  0.00572195    -0.32100
C439        C  0.24877519  0.31554944  0.02536696     0.37200
C440        C  0.21459020  0.30255546  0.02281816    -0.05000
C441        C  0.20668492  0.26811898  0.99971746    -0.32000
C442        C  0.23209996  0.24648547  0.97998567     0.37100
H443        H  0.30022453  0.30424979  0.00840817     0.17400
O444        O  0.25785888  0.34911199  0.04739425    -0.59500
H445        H  0.18068237  0.25758788  0.99713354     0.17500
O446        O  0.22311752  0.21265554  0.95830314    -0.59600
H447        H  0.22364234  0.18979040  0.97783427     0.44500
H448        H  0.25855723  0.37193126  0.02783453     0.44400
C449        C  0.45100536  0.17927363  0.58227121    -0.04600
C450        C  0.46841430  0.20220335  0.55333151    -0.32100
C451        C  0.50405613  0.20307060  0.55296647     0.37200
C452        C  0.52279687  0.18078797  0.58188347    -0.05000
C453        C  0.50528068  0.15896416  0.61140919    -0.32000
C454        C  0.46993891  0.15824001  0.61197182     0.37100
H455        H  0.45441745  0.21894679  0.53049343     0.17400
O456        O  0.52016891  0.22539961  0.52403111    -0.59500
H457        H  0.51902155  0.14196896  0.63430174     0.17500
O458        O  0.45429182  0.13632866  0.64160307    -0.59600
H459        H  0.45126355  0.15581903  0.66390198     0.44500
H460        H  0.52196102  0.20688259  0.50073415     0.44400
C461        C  0.32854469  0.18238071  0.71200082    -0.04600
C462        C  0.33765668  0.21922353  0.73060330    -0.32100
C463        C  0.33928359  0.22236015  0.77244978     0.37200
C464        C  0.33172633  0.18823673  0.79663367    -0.05000
C465        C  0.32151177  0.15186375  0.77801874    -0.32000
C466        C  0.31991508  0.14870810  0.73626932     0.37100
H467        H  0.34445895  0.24553049  0.71269154     0.17400
O468        O  0.34953085  0.25849765  0.78919258    -0.59500
H469        H  0.31549775  0.12521747  0.79585189     0.17500
O470        O  0.31117841  0.11195315  0.71967555    -0.59600
H471        H  0.28609873  0.11264257  0.71698533     0.44500
H472        H  0.32861515  0.27516283  0.79096756     0.44400
C473        C  0.95244517  0.35337839  0.43904891    -0.04600
C474        C  0.96888725  0.38005444  0.41267536    -0.32100
C475        C  0.00408492  0.38027911  0.40932784     0.37200
C476        C  0.02417773  0.35379607  0.43310724    -0.05000
C477        C  0.00786532  0.32677298  0.45955162    -0.32000
C478        C  0.97225358  0.32644502  0.46267549     0.37100
H479        H  0.95434478  0.40088317  0.39394698     0.17400
O480        O  0.01846796  0.40713487  0.38287275    -0.59500
H481        H  0.02271122  0.30618132  0.47818882     0.17500
O482        O  0.95726018  0.30006944  0.48908792    -0.59600
H483        H  0.95698415  0.31477028  0.51502744     0.44500
H484        H  0.01856371  0.39271800  0.35683747     0.44400
C485        C  0.14821999  0.35493535  0.29720711    -0.04600
C486        C  0.16674489  0.38525654  0.27721547    -0.32100
C487        C  0.16760397  0.38678241  0.23530584     0.37200
C488        C  0.14994309  0.35739922  0.21241625    -0.05000
C489        C  0.13264825  0.32602284  0.23243706    -0.32000
C490        C  0.13159763  0.32466019  0.27436457     0.37100
H491        H  0.18003368  0.40858791  0.29410133     0.17400
O492        O  0.18562456  0.41734286  0.21714257    -0.59500
H493        H  0.11868371  0.30324285  0.21557048     0.17500
O494        O  0.11241565  0.29511628  0.29246966    -0.59600
H495        H  0.12712029  0.27062757  0.29351592     0.44500
H496        H  0.17024756  0.44127904  0.21683135     0.44400
C497        C  0.21171704  0.28910421  0.48510963    -0.04600
C498        C  0.24426799  0.30595970  0.49056419    -0.32100
C499        C  0.26997247  0.28430688  0.51053769     0.37200
C500        C  0.26351189  0.24485030  0.52537141    -0.05000
C501        C  0.23099464  0.22793203  0.51984620    -0.32000
C502        C  0.20529130  0.24956411  0.49982047     0.37100
H503        H  0.24986875  0.33631716  0.47960616     0.17400
O504        O  0.30124590  0.30213712  0.51533925    -0.59500
H505        H  0.22543229  0.19755874  0.53079902     0.17500
O506        O  0.17401154  0.23173279  0.49507254    -0.59600
H507        H  0.17532948  0.21632810  0.46962170     0.44500
H508        H  0.29997810  0.31729151  0.54093672     0.44400
C509        C  0.94465235  0.69503109  0.56716402    -0.04600
C510        C  0.96153389  0.67108225  0.53882626    -0.32100
C511        C  0.99699307  0.67149036  0.53624215     0.37200
C512        C  0.01645164  0.69615704  0.56236502    -0.05000
C513        C  0.99943418  0.72200018  0.58899206    -0.32000
C514        C  0.96390754  0.72176392  0.59137911     0.37100
H515        H  0.94727303  0.65090489  0.51927299     0.17400
O516        O  0.01229346  0.64718429  0.50839467    -0.59500
H517        H  0.01373075  0.74135104  0.60929767     0.17500
O518        O  0.94855155  0.74588968  0.61930334    -0.59600
H519        H  0.94605477  0.77292900  0.60621214     0.44500
H520        H  0.01290247  0.61958601  0.52056509     0.44400
C521        C  0.13880827  0.68232383  0.70863477    -0.04600
C522        C  0.13192773  0.71884543  0.72883032    -0.32100
C523        C  0.13195978  0.72034571  0.77075479     0.37200
C524        C  0.13876076  0.68477679  0.79340748    -0.05000
C525        C  0.14705179  0.64875250  0.77319395    -0.32000
C526        C  0.14699729  0.64724737  0.73131759     0.37100
H527        H  0.12569520  0.74627217  0.71212304     0.17400
O528        O  0.12377939  0.75631793  0.78906488    -0.59500
H529        H  0.15273715  0.62114582  0.78986824     0.17500
O530        O  0.15446491  0.61104780  0.71302054    -0.59600
H531        H  0.13266839  0.59594426  0.71176407     0.44500
H532        H  0.14541607  0.77169835  0.79100855     0.44400
C533        C  0.14117887  0.55688471  0.52809629    -0.04600
C534        C  0.12479630  0.52347057  0.54576888    -0.32100
C535        C  0.12470176  0.48524476  0.52736327     0.35600
C536        C  0.14180748  0.47951627  0.49084995    -0.05000
C537        C  0.15934850  0.51257374  0.47399438    -0.32000
C538        C  0.15916300  0.55092234  0.49225207     0.37100
H539        H  0.11086361  0.52723161  0.57331530     0.17400
O540        O  0.10717744  0.45399583  0.54506956    -0.59500
H541        H  0.17282121  0.50896455  0.44610926     0.17500
O542        O  0.17603637  0.58249120  0.47421737    -0.59600
H543        H  0.19942667  0.58147647  0.48551857     0.44500
H544        H  0.08346592  0.45680161  0.53501986     0.44400
C545        C  0.51709607  0.83445946  0.43903350    -0.04600
C546        C  0.49997008  0.85694604  0.46824626    -0.32100
C547        C  0.46455399  0.85827823  0.46893571     0.37200
C548        C  0.44530018  0.83703411  0.43986526    -0.05000
C549        C  0.46233314  0.81242728  0.41216164    -0.32000
C550        C  0.49791489  0.81109009  0.41149121     0.37100
H551        H  0.51406914  0.87478768  0.49004782     0.17400
O552        O  0.44917622  0.88193074  0.49723499    -0.59500
H553        H  0.44811374  0.79549089  0.38977390     0.17500
O554        O  0.51352013  0.78788734  0.38299151    -0.59600
H555        H  0.51479358  0.80561892  0.35890878     0.44500
H556        H  0.44496837  0.86332972  0.52012270     0.44400
C557        C  0.32427747  0.86152428  0.29298713    -0.04600
C558        C  0.31562695  0.89785232  0.27292334    -0.32100
C559        C  0.31513086  0.90002087  0.23099522     0.37200
C560        C  0.32311266  0.86532173  0.20807888    -0.05000
C561        C  0.33100835  0.82875157  0.22812433    -0.32000
C562        C  0.33171450  0.82664713  0.27005841     0.37100
H563        H  0.30982742  0.92508054  0.28976834     0.17400
O564        O  0.30741298  0.93650983  0.21288932    -0.59500
H565        H  0.33721678  0.80167192  0.21125643     0.17500
O566        O  0.34012611  0.79037654  0.28815806    -0.59600
H567        H  0.36524902  0.79073844  0.29066525     0.44500
H568        H  0.32933026  0.95124409  0.21109977     0.44400
C569        C  0.32531270  0.05694247  0.51704439    -0.04600
C570        C  0.33810552  0.05414070  0.47803256    -0.32100
C571        C  0.33775534  0.01712236  0.45744413     0.37200
C572        C  0.32440566  0.98191670  0.47580804    -0.05000
C573        C  0.30980704  0.98528485  0.51389213    -0.32000
C574        C  0.30984336  0.02242970  0.53430075     0.37100
H575        H  0.34953649  0.08042489  0.46379758     0.17400
O576        O  0.35138898  0.01561618  0.41984060    -0.59500
H577        H  0.29881115  0.95883923  0.52832333     0.17500
O578        O  0.29541540  0.02425424  0.57146437    -0.59600
H579        H  0.27166374  0.03320489  0.56643814     0.44500
H580        H  0.37604973  0.01110254  0.42427233     0.44400
C581        C  0.25752841  0.79105969  0.48146327    -0.04600
C582        C  0.26395551  0.77351595  0.51926490    -0.32100
C583        C  0.23810696  0.75387756  0.54036363     0.37200
C584        C  0.20511257  0.75115030  0.52356832    -0.05000
C585        C  0.19864023  0.76905886  0.48600314    -0.32000
C586        C  0.22447332  0.78856677  0.46487382     0.37100
H587        H  0.28903681  0.77541132  0.53282229     0.17400
O588        O  0.24548952  0.73746276  0.57732675    -0.59500
H589        H  0.17358759  0.76712277  0.47238362     0.17500
O590        O  0.21705513  0.80482108  0.42786468    -0.59600
H591        H  0.22071303  0.78228766  0.40867799     0.44500
H592        H  0.24046091  0.75939011  0.59673914     0.44400
loop_ 
_geom_bond_atom_site_label_1 
_geom_bond_atom_site_label_2 
_geom_bond_distance 
_geom_bond_site_symmetry_2 
_ccdc_geom_bond_type 
O1            C4   1.267       .  A
O1           Cd6   2.464       .  S
C2           O11   1.265       .  A
C2            O7   1.266       .  A
C2          C572   1.480       .  S
O3            C9   1.266       .  A
O3           Cd6   2.475       .  S
C4           O12   1.266       .  A
C4          C557   1.485       .  S
C5           O10   1.262       .  A
C5            O8   1.264       .  A
C5          C548   1.483       .  S
Cd6          O13   2.445       .  S
Cd6          O12   2.459       .  S
Cd6          O11   2.449       .  S
Cd6           O7   2.459       .  S
Cd6          O10   2.457       .  S
Cd6           O8   2.489       .  S
C9           O13   1.263       .  A
C9          C581   1.481       .  S
O14          C17   1.266       .  A
O14         Cd19   2.454       .  S
C15          O24   1.266       .  A
C15          O20   1.268       .  A
C15         C533   1.482       .  S
O16          C22   1.264       .  A
O16         Cd19   2.488       .  S
C17          O25   1.265       .  A
C17         C521   1.482       .  S
C18          O23   1.267       .  A
C18          O21   1.263       .  A
C18         C584   1.480       .  S
Cd19         O26   2.476       .  S
Cd19         O25   2.456       .  S
Cd19         O24   2.453       .  S
Cd19         O20   2.462       .  S
Cd19         O23   2.473       .  S
Cd19         O21   2.448       .  S
C22          O26   1.263       .  A
C22         C512   1.487       .  S
O27          C30   1.266       .  A
O27         Cd32   2.458       .  S
C28          O37   1.264       .  A
C28          O33   1.267       .  A
C28         C536   1.484       .  S
O29          C35   1.269       .  A
O29         Cd32   2.502       .  S
C30          O38   1.266       .  A
C30         C485   1.483       .  S
C31          O36   1.267       .  A
C31          O34   1.263       .  A
C31         C497   1.481       .  S
Cd32         O39   2.412       .  S
Cd32         O38   2.472       .  S
Cd32         O37   2.448       .  S
Cd32         O33   2.474       .  S
Cd32         O36   2.474       .  S
Cd32         O34   2.438       .  S
C35          O39   1.264       .  A
C35         C476   1.485       .  S
O40          C43   1.266       .  A
O40         Cd45   2.457       .  S
C41          O50   1.267       .  A
C41          O46   1.266       .  A
C41         C461   1.484       .  S
O42          C48   1.268       .  A
O42         Cd45   2.499       .  S
C43          O51   1.265       .  A
C43         C569   1.479       .  S
C44          O49   1.268       .  A
C44          O47   1.264       .  A
C44         C500   1.480       .  S
Cd45         O52   2.416       .  S
Cd45         O51   2.445       .  S
Cd45         O50   2.464       .  S
Cd45         O46   2.448       .  S
Cd45         O49   2.466       .  S
Cd45         O47   2.430       .  S
C48          O52   1.262       .  A
C48         C449   1.482       .  S
O53          C56   1.269       .  A
O53         Cd58   2.452       .  S
C54          O63   1.266       .  A
C54          O59   1.266       .  A
C54         C488   1.483       .  S
O55          C61   1.271       .  A
O55         Cd58   2.510       .  S
C56          O64   1.266       .  A
C56         C425   1.481       .  S
C57          O62   1.270       .  A
C57          O60   1.263       .  A
C57         C440   1.484       .  S
Cd58         O65   2.407       .  S
Cd58         O64   2.437       .  S
Cd58         O63   2.461       .  S
Cd58         O59   2.457       .  S
Cd58         O62   2.482       .  S
Cd58         O60   2.434       .  S
C61          O65   1.263       .  A
C61         C413   1.486       .  S
O66          C69   1.265       .  A
O66         Cd71   2.453       .  S
C67          O76   1.268       .  A
C67          O72   1.267       .  A
C67         C401   1.481       .  S
O68          C74   1.262       .  A
O68         Cd71   2.449       .  S
C69          O77   1.265       .  A
C69         C464   1.483       .  S
C70          O75   1.267       .  A
C70          O73   1.262       .  A
C70         C437   1.483       .  S
Cd71         O78   2.496       .  S
Cd71         O77   2.469       .  S
Cd71         O76   2.449       .  S
Cd71         O72   2.444       .  S
Cd71         O75   2.483       .  S
Cd71         O73   2.443       .  S
C74          O78   1.265       .  A
C74         C389   1.483       .  S
O79          C82   1.265       .  A
O79         Cd84   2.464       .  S
C80          O89   1.266       .  A
C80          O85   1.267       .  A
C80         C404   1.481       .  S
O81          C87   1.270       .  A
O81         Cd84   2.518       .  S
C82          O90   1.266       .  A
C82         C560   1.484       .  S
C83          O88   1.268       .  A
C83          O86   1.264       .  A
C83         C380   1.485       .  S
Cd84         O91   2.401       .  S
Cd84         O90   2.470       .  S
Cd84         O89   2.455       .  S
Cd84         O85   2.443       .  S
Cd84         O88   2.476       .  S
Cd84         O86   2.459       .  S
C87          O91   1.261       .  A
C87         C365   1.484       .  S
O92          C95   1.269       .  A
O92         Cd97   2.483       .  S
C93         O102   1.264       .  A
C93          O98   1.267       .  A
C93         C524   1.482       .  S
O94         C100   1.263       .  A
O94         Cd97   2.478       .  S
C95         O103   1.264       .  A
C95         C428   1.483       .  S
C96         O101   1.266       .  A
C96          O99   1.263       .  A
C96         C377   1.482       .  S
Cd97        O104   2.471       .  S
Cd97        O103   2.431       .  S
Cd97        O102   2.459       .  S
Cd97         O98   2.461       .  S
Cd97        O101   2.468       .  S
Cd97         O99   2.441       .  S
C100        O104   1.263       .  A
C100        C353   1.484       .  S
O105        C108   1.267       .  A
O105       Cd110   2.475       .  S
C106        O115   1.265       .  A
C106        O111   1.269       .  A
C106        C332   1.482       .  S
O107        C113   1.262       .  A
O107       Cd110   2.447       .  S
C108        O116   1.264       .  A
C108        C317   1.482       .  S
C109        O114   1.266       .  A
C109        O112   1.263       .  A
C109        C341   1.481       .  S
Cd110       O117   2.490       .  S
Cd110       O116   2.438       .  S
Cd110       O115   2.442       .  S
Cd110       O111   2.462       .  S
Cd110       O114   2.474       .  S
Cd110       O112   2.442       .  S
C113        O117   1.264       .  A
C113        C545   1.482       .  S
O118        C121   1.266       .  A
O118       Cd123   2.476       .  S
C119        O128   1.265       .  A
C119        O124   1.267       .  A
C119        C308   1.479       .  S
O120        C126   1.266       .  A
O120       Cd123   2.461       .  S
C121        O129   1.266       .  A
C121        C293   1.485       .  S
C122        O127   1.265       .  A
C122        O125   1.262       .  A
C122        C509   1.485       .  S
Cd123       O130   2.464       .  S
Cd123       O129   2.454       .  S
Cd123       O128   2.433       .  S
Cd123       O124   2.453       .  S
Cd123       O127   2.498       .  S
Cd123       O125   2.458       .  S
C126        O130   1.264       .  A
C126        C344   1.482       .  S
O131        C134   1.264       .  A
O131       Cd136   2.462       .  S
C132        O141   1.267       .  A
C132        O137   1.265       .  A
C132        C272   1.483       .  S
O133        C139   1.268       .  A
O133       Cd136   2.520       .  S
C134        O142   1.265       .  A
C134        C305   1.477       .  S
C135        O140   1.266       .  A
C135        O138   1.263       .  A
C135        C281   1.484       .  S
Cd136       O143   2.412       .  S
Cd136       O142   2.449       .  S
Cd136       O141   2.472       .  S
Cd136       O137   2.445       .  S
Cd136       O140   2.485       .  S
Cd136       O138   2.445       .  S
C139        O143   1.263       .  A
C139        C473   1.483       .  S
O144        C147   1.267       .  A
O144       Cd149   2.438       .  S
C145        O154   1.266       .  A
C145        O150   1.264       .  A
C145        C329   1.481       .  S
O146        C152   1.269       .  A
O146       Cd149   2.494       .  S
C147        O155   1.266       .  A
C147        C257   1.480       .  S
C148        O153   1.267       .  A
C148        O151   1.265       .  A
C148        C284   1.483       .  S
Cd149       O156   2.403       .  S
Cd149       O155   2.452       .  S
Cd149       O154   2.471       .  S
Cd149       O150   2.445       .  S
Cd149       O153   2.474       .  S
Cd149       O151   2.450       .  S
C152        O156   1.263       .  A
C152        C452   1.480       .  S
O157        C160   1.265       .  A
O157       Cd162   2.466       .  S
C158        O167   1.265       .  A
C158        O163   1.266       .  A
C158        C236   1.481       .  S
O159        C165   1.267       .  A
O159       Cd162   2.511       .  S
C160        O168   1.266       .  A
C160        C269   1.484       .  S
C161        O166   1.266       .  A
C161        O164   1.264       .  A
C161        C245   1.483       .  S
Cd162       O169   2.440       .  S
Cd162       O168   2.464       .  S
Cd162       O167   2.440       .  S
Cd162       O163   2.467       .  S
Cd162       O166   2.472       .  S
Cd162       O164   2.456       .  S
C165        O169   1.264       .  A
C165        C416   1.487       .  S
O170        C173   1.265       .  A
O170       Cd175   2.445       .  S
C171        O180   1.265       .  A
C171        O176   1.267       .  A
C171        C224   1.480       .  S
O172        C178   1.265       .  A
O172       Cd175   2.456       .  S
C173        O181   1.266       .  A
C173        C260   1.481       .  S
C174        O179   1.261       .  A
C174        O177   1.265       .  A
C174        C392   1.482       .  S
Cd175       O182   2.466       .  S
Cd175       O181   2.460       .  S
Cd175       O180   2.442       .  S
Cd175       O176   2.453       .  S
Cd175       O179   2.435       .  S
Cd175       O177   2.497       .  S
C178        O182   1.264       .  A
C178        C248   1.480       .  S
O183        C186   1.265       .  A
O183       Cd188   2.444       .  S
C184        O193   1.264       .  A
C184        O189   1.266       .  A
C184        C221   1.480       .  S
O185        C191   1.267       .  A
O185       Cd188   2.474       .  S
C186        O194   1.267       .  A
C186        C320   1.482       .  S
C187        O192   1.268       .  A
C187        O190   1.264       .  A
C187        C368   1.482       .  S
Cd188       O195   2.447       .  S
Cd188       O194   2.464       .  S
Cd188       O193   2.439       .  S
Cd188       O189   2.461       .  S
Cd188       O192   2.505       .  S
Cd188       O190   2.418       .  S
C191        O195   1.263       .  A
C191        C209   1.482       .  S
O196        C199   1.267       .  A
O196       Cd201   2.476       .  S
C197        O206   1.266       .  A
C197        O202   1.265       .  A
C197        C233   1.480       .  S
O198        C204   1.262       .  A
O198       Cd201   2.464       .  S
C199        O207   1.266       .  A
C199        C296   1.485       .  S
C200        O205   1.265       .  A
C200        O203   1.263       .  A
C200        C212   1.480       .  S
Cd201       O208   2.484       .  S
Cd201       O207   2.449       .  S
Cd201       O206   2.450       .  S
Cd201       O202   2.452       .  S
Cd201       O205   2.461       .  S
Cd201       O203   2.460       .  S
C204        O208   1.264       .  A
C204        C356   1.482       .  S
C209        C210   1.405   1_554  A
C209        C214   1.412       .  A
C210        C211   1.400       .  A
C210        H215   1.083       .  S
C211        C212   1.411       .  A
C211        O216   1.372       .  S
C212        C213   1.403   1_556  A
C213        C214   1.398       .  A
C213        H217   1.084       .  S
C214        O218   1.372       .  S
O216        H220   0.991       .  S
O218        H219   0.992       .  S
C221        C222   1.404   1_565  A
C221        C226   1.411   1_554  A
C222        C223   1.398       .  A
C222        H227   1.083       .  S
C223        C224   1.411   1_554  A
C223        O228   1.371       .  S
C224        C225   1.404       .  A
C225        C226   1.398   1_545  A
C225        H229   1.083       .  S
C226        O230   1.372       .  S
O228        H232   0.992       .  S
O230        H231   0.992       .  S
C233        C234   1.406   1_556  A
C233        C238   1.410       .  A
C234        C235   1.400       .  A
C234        H239   1.083       .  S
C235        C236   1.411       .  A
C235        O240   1.371       .  S
C236        C237   1.405   1_554  A
C237        C238   1.397       .  A
C237        H241   1.083       .  S
C238        O242   1.372       .  S
O240        H244   0.992       .  S
O242        H243   0.992       .  S
C245        C246   1.406   1_554  A
C245        C250   1.412       .  A
C246        C247   1.400       .  A
C246        H251   1.083       .  S
C247        C248   1.410       .  A
C247        O252   1.372       .  S
C248        C249   1.404   1_556  A
C249        C250   1.399       .  A
C249        H253   1.084       .  S
C250        O254   1.372       .  S
O252        H256   0.993       .  S
O254        H255   0.992       .  S
C257        C258   1.404       .  A
C257        C262   1.411       .  A
C258        C259   1.397       .  A
C258        H263   1.083       .  S
C259        C260   1.411       .  A
C259        O264   1.372       .  S
C260        C261   1.405       .  A
C261        C262   1.399       .  A
C261        H265   1.083       .  S
C262        O266   1.371       .  S
O264        H268   0.992       .  S
O266        H267   0.992       .  S
C269        C270   1.405       .  A
C269        C274   1.411       .  A
C270        C271   1.400       .  A
C270        H275   1.083       .  S
C271        C272   1.410       .  A
C271        O276   1.371       .  S
C272        C273   1.406       .  A
C273        C274   1.400       .  A
C273        H277   1.084       .  S
C274        O278   1.372       .  S
O276        H280   0.991       .  S
O278        H279   0.991       .  S
C281        C282   1.406       .  A
C281        C286   1.410       .  A
C282        C283   1.399       .  A
C282        H287   1.083       .  S
C283        C284   1.409       .  A
C283        O288   1.372       .  S
C284        C285   1.406       .  A
C285        C286   1.401       .  A
C285        H289   1.083       .  S
C286        O290   1.371       .  S
O288        H292   0.991       .  S
O290        H291   0.992       .  S
C293        C294   1.404       .  A
C293        C298   1.412       .  A
C294        C295   1.398       .  A
C294        H299   1.083       .  S
C295        C296   1.411       .  A
C295        O300   1.371       .  S
C296        C297   1.406       .  A
C297        C298   1.403       .  A
C297        H301   1.083       .  S
C298        O302   1.372       .  S
O300        H304   0.992       .  S
O302        H303   0.993       .  S
C305        C306   1.403       .  A
C305        C310   1.410       .  A
C306        C307   1.397       .  A
C306        H311   1.083       .  S
C307        C308   1.410       .  A
C307        O312   1.372       .  S
C308        C309   1.406       .  A
C309        C310   1.398       .  A
C309        H313   1.084       .  S
C310        O314   1.372       .  S
O312        H316   0.991       .  S
O314        H315   0.992       .  S
C317        C318   1.404       .  A
C317        C322   1.412       .  A
C318        C319   1.400       .  A
C318        H323   1.083       .  S
C319        C320   1.412       .  A
C319        O324   1.371       .  S
C320        C321   1.404       .  A
C321        C322   1.398       .  A
C321        H325   1.083       .  S
C322        O326   1.372       .  S
O324        H328   0.992       .  S
O326        H327   0.992       .  S
C329        C330   1.404       .  A
C329        C334   1.411       .  A
C330        C331   1.400   1_545  A
C330        H335   1.084       .  S
C331        C332   1.413       .  A
C331        O336   1.372       .  S
C332        C333   1.404   1_565  A
C333        C334   1.399       .  A
C333        H337   1.083       .  S
C334        O338   1.372       .  S
O336        H340   0.992       .  S
O338        H339   0.991       .  S
C341        C342   1.405       .  A
C341        C346   1.411       .  A
C342        C343   1.400       .  A
C342        H347   1.083       .  S
C343        C344   1.412       .  A
C343        O348   1.372       .  S
C344        C345   1.404       .  A
C345        C346   1.397       .  A
C345        H349   1.083       .  S
C346        O350   1.372       .  S
O348        H352   0.992       .  S
O350        H351   0.992       .  S
C353        C354   1.405   1_455  A
C353        C358   1.412   1_455  A
C354        C355   1.400       .  A
C354        H359   1.083   1_655  S
C355        C356   1.410       .  A
C355        O360   1.371       .  S
C356        C357   1.405       .  A
C357        C358   1.400       .  A
C357        H361   1.084   1_556  S
C358        O362   1.372   1_656  S
O360        H364   0.991       .  S
O362        H363   0.992   1_554  S
C365        C366   1.407       .  A
C365        C370   1.412       .  A
C366        C367   1.407       .  A
C366        H371   1.083       .  S
C367        C368   1.412       .  A
C367        O372   1.371       .  S
C368        C369   1.402       .  A
C369        C370   1.393       .  A
C369        H373   1.084       .  S
C370        O374   1.372       .  S
O372        H376   0.992       .  S
O374        H375   0.992       .  S
C377        C378   1.404   1_556  A
C377        C382   1.412       .  A
C378        C379   1.400       .  A
C378        H383   1.084       .  S
C379        C380   1.413       .  A
C379        O384   1.371       .  S
C380        C381   1.404   1_554  A
C381        C382   1.399       .  A
C381        H385   1.083       .  S
C382        O386   1.372       .  S
O384        H388   0.992       .  S
O386        H387   0.992       .  S
C389        C390   1.404       .  A
C389        C394   1.411       .  A
C390        C391   1.397       .  A
C390        H395   1.084       .  S
C391        C392   1.411       .  A
C391        O396   1.372       .  S
C392        C393   1.405       .  A
C393        C394   1.403       .  A
C393        H397   1.083       .  S
C394        O398   1.371       .  S
O396        H400   0.992   1_556  S
O398        H399   0.992       .  S
C401        C402   1.405       .  A
C401        C406   1.411   1_556  A
C402        C403   1.399   1_545  A
C402        H407   1.083       .  S
C403        C404   1.411   1_556  A
C403        O408   1.371       .  S
C404        C405   1.404   1_565  A
C405        C406   1.398       .  A
C405        H409   1.083       .  S
C406        O410   1.372       .  S
O408        H412   0.992       .  S
O410        H411   0.992       .  S
C413        C414   1.406       .  A
C413        C418   1.413       .  A
C414        C415   1.406   1_455  A
C414        H419   1.083       .  S
C415        C416   1.412       .  A
C415        O420   1.371       .  S
C416        C417   1.404       .  A
C417        C418   1.395   1_655  A
C417        H421   1.083       .  S
C418        O422   1.372       .  S
O420        H424   0.992       .  S
O422        H423   0.991       .  S
C425        C426   1.403       .  A
C425        C430   1.413   1_554  A
C426        C427   1.398       .  A
C426        H431   1.083       .  S
C427        C428   1.413   1_554  A
C427        O432   1.372       .  S
C428        C429   1.404       .  A
C429        C430   1.401       .  A
C429        H433   1.083       .  S
C430        O434   1.372       .  S
O432        H436   0.992       .  S
O434        H435   0.992       .  S
C437        C438   1.403   1_556  A
C437        C442   1.413       .  A
C438        C439   1.400       .  A
C438        H443   1.083       .  S
C439        C440   1.414       .  A
C439        O444   1.372       .  S
C440        C441   1.403   1_554  A
C441        C442   1.400       .  A
C441        H445   1.083       .  S
C442        O446   1.372       .  S
O444        H448   0.992       .  S
O446        H447   0.992       .  S
C449        C450   1.406       .  A
C449        C454   1.411       .  A
C450        C451   1.404       .  A
C450        H455   1.083       .  S
C451        C452   1.410       .  A
C451        O456   1.371       .  S
C452        C453   1.403       .  A
C453        C454   1.393       .  A
C453        H457   1.084       .  S
C454        O458   1.372       .  S
O456        H460   0.992       .  S
O458        H459   0.991       .  S
C461        C462   1.406       .  A
C461        C466   1.411       .  A
C462        C463   1.401       .  A
C462        H467   1.083       .  S
C463        C464   1.411       .  A
C463        O468   1.372       .  S
C464        C465   1.404       .  A
C465        C466   1.398       .  A
C465        H469   1.083       .  S
C466        O470   1.371       .  S
O468        H472   0.992       .  S
O470        H471   0.991       .  S
C473        C474   1.402       .  A
C473        C478   1.411       .  A
C474        C475   1.392   1_655  A
C474        H479   1.084       .  S
C475        C476   1.411       .  A
C475        O480   1.372       .  S
C476        C477   1.409       .  A
C477        C478   1.408   1_455  A
C477        H481   1.083       .  S
C478        O482   1.371       .  S
O480        H484   0.991       .  S
O482        H483   0.993       .  S
C485        C486   1.405       .  A
C485        C490   1.411       .  A
C486        C487   1.400       .  A
C486        H491   1.083       .  S
C487        C488   1.411       .  A
C487        O492   1.372       .  S
C488        C489   1.405       .  A
C489        C490   1.400       .  A
C489        H493   1.083       .  S
C490        O494   1.372       .  S
O492        H496   0.992       .  S
O494        H495   0.991       .  S
C497        C498   1.406       .  A
C497        C502   1.409       .  A
C498        C499   1.398       .  A
C498        H503   1.083       .  S
C499        C500   1.409       .  A
C499        O504   1.371       .  S
C500        C501   1.406       .  A
C501        C502   1.399       .  A
C501        H505   1.083       .  S
C502        O506   1.372       .  S
O504        H508   0.992       .  S
O506        H507   0.992       .  S
C509        C510   1.405       .  A
C509        C514   1.410       .  A
C510        C511   1.400       .  A
C510        H515   1.084       .  S
C511        C512   1.411   1_655  A
C511        O516   1.372   1_655  S
C512        C513   1.407   1_455  A
C513        C514   1.403       .  A
C513        H517   1.083   1_655  S
C514        O518   1.371       .  S
O516        H520   0.991       .  S
O518        H519   0.992       .  S
C521        C522   1.405       .  A
C521        C526   1.410       .  A
C522        C523   1.400       .  A
C522        H527   1.084       .  S
C523        C524   1.412       .  A
C523        O528   1.372       .  S
C524        C525   1.404       .  A
C525        C526   1.398       .  A
C525        H529   1.083       .  S
C526        O530   1.371       .  S
O528        H532   0.992       .  S
O530        H531   0.992       .  S
C533        C534   1.403       .  A
C533        C538   1.411       .  A
C534        C535   1.399       .  A
C534        H539   1.083       .  S
C535        C536   1.412       .  A
C535        O540   1.372       .  S
C536        C537   1.405       .  A
C537        C538   1.400       .  A
C537        H541   1.083       .  S
C538        O542   1.371       .  S
O540        H544   0.993       .  S
O542        H543   0.992       .  S
C545        C546   1.404       .  A
C545        C550   1.411       .  A
C546        C547   1.396       .  A
C546        H551   1.084       .  S
C547        C548   1.411       .  A
C547        O552   1.371       .  S
C548        C549   1.406       .  A
C549        C550   1.403       .  A
C549        H553   1.083       .  S
C550        O554   1.372       .  S
O552        H556   0.991       .  S
O554        H555   0.992       .  S
C557        C558   1.405       .  A
C557        C562   1.412       .  A
C558        C559   1.400       .  A
C558        H563   1.083       .  S
C559        C560   1.412       .  A
C559        O564   1.372       .  S
C560        C561   1.405       .  A
C561        C562   1.400       .  A
C561        H565   1.083       .  S
C562        O566   1.372       .  S
O564        H568   0.992       .  S
O566        H567   0.992       .  S
C569        C570   1.405       .  A
C569        C574   1.410       .  A
C570        C571   1.398       .  A
C570        H575   1.083       .  S
C571        C572   1.410   1_545  A
C571        O576   1.372       .  S
C572        C573   1.406       .  A
C573        C574   1.399   1_565  A
C573        H577   1.083       .  S
C574        O578   1.372       .  S
O576        H580   0.992       .  S
O578        H579   0.993       .  S
C581        C582   1.405       .  A
C581        C586   1.411       .  A
C582        C583   1.400       .  A
C582        H587   1.084       .  S
C583        C584   1.412       .  A
C583        O588   1.372       .  S
C584        C585   1.403       .  A
C585        C586   1.398       .  A
C585        H589   1.083       .  S
C586        O590   1.371       .  S
O588        H592   0.992       .  S
O590        H591   0.992       .  S
