geometry optimzed in LAMMPS
_audit_creation_date              2020-11-30 
_audit_creation_method            'lammps2cif' 
_symmetry_space_group_name_H-M    'P1' 
_symmetry_Int_Tables_number       1 
_symmetry_cell_setting            triclinic 
loop_ 
_symmetry_equiv_pos_as_xyz 
  x,y,z 
_cell_length_a                    25.74652466 
_cell_length_b                    24.989332076741814 
_cell_length_c                    39.517070280411986 
_cell_angle_alpha                 90.19941562388723 
_cell_angle_beta                  89.6198434998034 
_cell_angle_gamma                 90.00805159057822 
loop_ 
_atom_site_label 
_atom_site_type_symbol 
_atom_site_fract_x 
_atom_site_fract_y 
_atom_site_fract_z 
_atom_site_charge 
O1          O  0.52367114  0.41340470  0.39873732    -0.79700
O2          O  0.52086764  0.40444093  0.59335455    -0.81300
O3          O  0.60535622  0.34527606  0.49774040    -0.78300
O4          O  0.43621770  0.35243842  0.49781308    -0.76700
O5          O  0.37569483  0.41919959  0.49457767    -0.78500
O6          O  0.66989566  0.40815043  0.49738124    -0.79400
O7          O  0.52425715  0.34396161  0.54953508    -0.80700
O8          O  0.52181757  0.34983080  0.44029364    -0.81000
Eu9        Eu  0.52266925  0.39303495  0.49634456     2.39200
O10         O  0.47183464  0.44753232  0.53217745    -0.88500
O11         O  0.57807230  0.44530863  0.46241283    -0.92100
C12         C  0.52162296  0.36419337  0.40892397     1.02600
C13         C  0.52287309  0.35605912  0.58122170     1.02400
C14         C  0.65338669  0.35948444  0.49765048     1.02300
C15         C  0.38914334  0.36957365  0.49597335     1.00200
H16         H  0.59506372  0.42053336  0.54610612     0.29900
O17         O  0.57418125  0.44456714  0.53285592    -1.00900
H18         H  0.45000252  0.42781664  0.44763629     0.30000
O19         O  0.47259248  0.44904933  0.46183627    -1.03500
O20         O  0.52381804  0.58894253  0.59807099    -0.80700
O21         O  0.52691840  0.59274219  0.40234818    -0.80200
O22         O  0.67100814  0.48811543  0.55453825    -0.78700
O23         O  0.37750522  0.49878216  0.55160641    -0.82000
O24         O  0.38053758  0.51065541  0.44315861    -0.79800
O25         O  0.67381163  0.49594762  0.44427691    -0.78500
O26         O  0.61708186  0.64721527  0.50193078    -0.80000
O27         O  0.44825846  0.65678014  0.50108135    -0.81900
O28         O  0.67861965  0.58147751  0.49911658    -0.78700
O29         O  0.38338953  0.59474062  0.49653250    -0.81400
O30         O  0.61106989  0.49060727  0.59771745    -0.77100
O31         O  0.61543978  0.50197663  0.40099614    -0.77100
O32         O  0.44081143  0.50690255  0.40033342    -0.76800
O33         O  0.43356943  0.49430134  0.59619005    -0.80300
O34         O  0.52956640  0.65272498  0.55669989    -0.79700
O35         O  0.53101707  0.65267148  0.44631687    -0.78000
Eu36       Eu  0.52340901  0.49779115  0.57026748     2.39800
Eu37       Eu  0.52766925  0.50212247  0.42775161     2.39600
Eu38       Eu  0.62974468  0.49682417  0.49924161     2.38400
Eu39       Eu  0.42276819  0.50445853  0.49770052     2.39900
Eu40       Eu  0.53025236  0.60739119  0.50137844     2.39800
O41         O  0.47809455  0.55695838  0.46456292    -0.92400
O42         O  0.57957375  0.55082053  0.53607430    -0.91300
C43         C  0.52633606  0.63847497  0.58802512     1.02700
C44         C  0.52884838  0.64087365  0.41451693     1.01500
C45         C  0.65830712  0.48635087  0.58614003     1.00800
C46         C  0.38711887  0.49503437  0.58341224     1.02900
C47         C  0.39363869  0.51089229  0.41171849     1.01800
C48         C  0.66224764  0.49871112  0.41263633     1.00600
C49         C  0.66452720  0.63100255  0.50031111     1.00700
C50         C  0.40016232  0.64344154  0.49828025     1.03300
H51         H  0.60320645  0.57566815  0.45153779     0.30700
O52         O  0.58034383  0.55334900  0.46483221    -1.04600
H53         H  0.45216862  0.57763003  0.54876771     0.32700
O54         O  0.47428427  0.55487685  0.53498423    -1.07200
N55         N  0.03020290  0.92200682  0.47707452    -0.36200
N56         N  0.94627853  0.99934729  0.47759066    -0.56800
N57         N  0.02158033  0.08490171  0.47210036    -0.36200
N58         N  0.10549093  0.00748137  0.47574715    -0.56800
C59         C  0.98958177  0.89239944  0.48819075     0.27400
C60         C  0.07410293  0.89639396  0.48639174     0.27400
C61         C  0.97809471  0.11156810  0.48122215     0.27400
C62         C  0.06223526  0.11634969  0.48029889     0.27400
C63         C  0.91976143  0.95395903  0.47094653     0.36000
C64         C  0.91535800  0.04024233  0.46818973     0.36000
C65         C  0.13692292  0.96546442  0.46875645     0.36000
C66         C  0.13184512  0.05186449  0.46646106     0.36000
C67         C  0.00793139  0.84814099  0.50552438    -0.21500
C68         C  0.06131906  0.85046870  0.50416769    -0.21500
C69         C  0.99124823  0.16018746  0.49592944    -0.21500
C70         C  0.04453208  0.16331457  0.49520603    -0.21500
C71         C  0.87210977  0.96613419  0.45669177    -0.22500
C72         C  0.86920494  0.02096181  0.45514992    -0.22500
C73         C  0.18326032  0.98319433  0.45475157    -0.22500
C74         C  0.18007697  0.03804834  0.45336507    -0.22500
C75         C  0.93693783  0.90241371  0.48031129    -0.17900
C76         C  0.12500851  0.91190201  0.47706516    -0.17900
C77         C  0.11444367  0.10461211  0.47258260    -0.17900
C78         C  0.92723278  0.09449015  0.47394265    -0.17900
H79         H  0.98532345  0.81708371  0.51767162     0.15000
H80         H  0.08769095  0.82156730  0.51497693     0.15000
H81         H  0.96524303  0.19043167  0.50596290     0.15000
H82         H  0.06751391  0.19642633  0.50452878     0.15000
H83         H  0.84234138  0.93858574  0.44841651     0.13300
H84         H  0.83679934  0.04393847  0.44569341     0.13300
H85         H  0.21604057  0.95925419  0.44656198     0.13300
H86         H  0.20996881  0.06473791  0.44402496     0.13300
H87         H  0.02812371  0.95409166  0.46037134     0.26600
H88         H  0.02323054  0.05019365  0.45744504     0.26600
O89         O  0.97565571  0.91042080  0.90266694    -0.79700
O90         O  0.97179676  0.90154799  0.09668884    -0.81300
O91         O  0.05482877  0.84388714  0.99778340    -0.78300
O92         O  0.88310440  0.84276825  0.99915580    -0.76700
O93         O  0.81967686  0.90683196  0.00098775    -0.78500
O94         O  0.11484021  0.91113939  0.00189513    -0.79400
O95         O  0.96832091  0.83887279  0.05420910    -0.80700
O96         O  0.97048048  0.84486691  0.94302463    -0.81000
Eu97       Eu  0.96882601  0.88676195  0.99955942     2.39200
O98         O  0.91720524  0.93934771  0.03587234    -0.88500
O99         O  0.02124412  0.94329860  0.96608136    -0.92100
C100        C  0.97453589  0.86094897  0.91208410     1.02600
C101        C  0.97063753  0.85263284  0.08575280     1.02400
C102        C  0.10183106  0.86148486  0.99995155     1.02300
C103        C  0.83512695  0.85779307  0.00012649     1.00200
H104        H  0.04292360  0.91816841  0.04904267     0.29900
O105        O  0.02046909  0.94047118  0.03563978    -1.00900
H106        H  0.89438241  0.92027260  0.95124236     0.30000
O107        O  0.91614522  0.94191644  0.96566553    -1.03500
O108        O  0.97110056  0.08185696  0.10009245    -0.80700
O109        O  0.97194700  0.08869193  0.90649654    -0.80200
O110        O  0.11520156  0.00164755  0.05624586    -0.78700
O111        O  0.82161391  0.98117592  0.05798725    -0.82000
O112        O  0.82293961  0.00602506  0.94757917    -0.79800
O113        O  0.11759569  0.00038443  0.94779637    -0.78500
O114        O  0.04813103  0.14962033  0.00228338    -0.80000
O115        O  0.87846434  0.14449043  0.00294721    -0.81900
O116        O  0.11207541  0.08618399  0.00410589    -0.78700
O117        O  0.81713133  0.07899088  0.00904950    -0.81400
O118        O  0.05536969  0.99769400  0.09918839    -0.77100
O119        O  0.05824790  0.00131837  0.90497863    -0.77100
O120        O  0.88269320  0.00411357  0.90429171    -0.76800
O121        O  0.88133688  0.98679814  0.10054756    -0.80300
O122        O  0.96741212  0.14594547  0.05881613    -0.79700
O123        O  0.96445454  0.15069196  0.94908387    -0.78000
Eu124      Eu  0.96805881  0.99277593  0.07225084     2.39800
Eu125      Eu  0.96945587  0.99805536  0.93151840     2.39600
Eu126      Eu  0.07125794  0.99771754  0.00185059     2.38400
Eu127      Eu  0.86366041  0.99356004  0.00274862     2.39900
Eu128      Eu  0.96468952  0.10295968  0.00318626     2.39800
O129        O  0.91488471  0.04851942  0.96786534    -0.92400
O130        O  0.01780746  0.04920736  0.03717927    -0.91300
C131        C  0.97055266  0.13108004  0.08995118     1.02700
C132        C  0.96910794  0.13736140  0.91764855     1.01500
C133        C  0.10259879  0.00121138  0.08784387     1.00800
C134        C  0.83438977  0.98093099  0.08948633     1.02900
C135        C  0.83573750  0.00848605  0.91601496     1.01800
C136        C  0.10553815  0.00148964  0.91620352     1.00600
C137        C  0.09604276  0.13505007  0.00351120     1.00700
C138        C  0.83123423  0.12836155  0.00661548     1.03300
H139        H  0.04131553  0.07532654  0.95438705     0.30700
O140        O  0.01938983  0.05202891  0.96769234    -1.04600
H141        H  0.89198441  0.06885467  0.05321233     0.32700
O142        O  0.91405525  0.04755371  0.03863209    -1.07200
N143        N  0.46613874  0.41271312  0.03594525    -0.36200
N144        N  0.38573639  0.49260739  0.02926279    -0.56800
N145        N  0.46301339  0.57606106  0.02325268    -0.36200
N146        N  0.54424058  0.49568413  0.02623266    -0.56800
C147        C  0.42408412  0.38266143  0.02819051     0.27400
C148        C  0.50862131  0.38383699  0.02727825     0.27400
C149        C  0.42008551  0.60034196  0.01097843     0.27400
C150        C  0.50463716  0.60284541  0.01092530     0.27400
C151        C  0.35754314  0.45084522  0.04064326     0.36000
C152        C  0.35562156  0.53635169  0.03309879     0.36000
C153        C  0.57483829  0.45421835  0.03536295     0.36000
C154        C  0.57327632  0.54054347  0.02947931     0.36000
C155        C  0.44021630  0.33456839  0.01392747    -0.21500
C156        C  0.49356878  0.33504960  0.01376830    -0.21500
C157        C  0.43464594  0.64269728  0.99042744    -0.21500
C158        C  0.48804486  0.64436384  0.99047658    -0.21500
C159        C  0.30988766  0.46835358  0.05292726    -0.22500
C160        C  0.30860129  0.52272727  0.04801964    -0.22500
C161        C  0.62338201  0.47270754  0.04470147    -0.22500
C162        C  0.62228230  0.52744972  0.04127238    -0.22500
C163        C  0.37194280  0.39709314  0.03520250    -0.17900
C164        C  0.56051703  0.39979237  0.03251156    -0.17900
C165        C  0.55696115  0.59210419  0.01909789    -0.17900
C166        C  0.36831941  0.58660436  0.01941254    -0.17900
H167        H  0.41632586  0.30254675  0.00415286     0.15000
H168        H  0.51842023  0.30342047  0.00422003     0.15000
H169        H  0.40949635  0.66956337  0.97671701     0.15000
H170        H  0.51195044  0.67263325  0.97673267     0.15000
H171        H  0.27866337  0.44429932  0.06324937     0.13300
H172        H  0.27631375  0.54891603  0.05396307     0.13300
H173        H  0.65627429  0.44919283  0.05285023     0.13300
H174        H  0.65424756  0.55423269  0.04652112     0.13300
H175        H  0.46605426  0.44860000  0.04947048     0.26600
H176        H  0.46387301  0.54652012  0.04179953     0.26600
C177        C  0.08131502  0.49683450  0.27181468     0.86900
C178        C  0.07424062  0.44915951  0.24762415    -0.53300
C179        C  0.02691943  0.44700399  0.23236635     0.09800
C180        C  0.99049639  0.49362478  0.24258174     0.20800
C181        C  0.06907542  0.54644606  0.25064323    -0.54100
C182        C  0.02179231  0.54506608  0.23506252     0.09900
C183        C  0.03561468  0.49209407  0.29669529    -0.53600
C184        C  0.98771774  0.49094766  0.28178242     0.10500
H185        H  0.10371335  0.41892018  0.24309637     0.15000
H186        H  0.95209847  0.49205379  0.23003973     0.00800
H187        H  0.09620962  0.57941850  0.24775569     0.15300
H188        H  0.04101352  0.49077849  0.32389976     0.15100
C189        C  0.42323881  0.99903655  0.22227470     0.86900
C190        C  0.42481660  0.94852583  0.24413258    -0.53300
C191        C  0.46646084  0.94579606  0.26534650     0.09800
C192        C  0.50263031  0.99529398  0.26319373     0.20800
C193        C  0.42572079  0.04603342  0.24705579    -0.54100
C194        C  0.46721305  0.04482152  0.26830798     0.09900
C195        C  0.47646073  0.99945984  0.20419021    -0.53600
C196        C  0.51812773  0.99722061  0.22548294     0.10500
H197        H  0.39642890  0.91657619  0.24188106     0.15000
H198        H  0.53650483  0.99371645  0.28040834     0.00800
H199        H  0.39761659  0.07846463  0.24711297     0.15300
H200        H  0.48128815  0.00030783  0.17691516     0.15100
C201        C  0.06936915  0.49273807  0.72630659     0.86900
C202        C  0.06178786  0.54487416  0.74616405    -0.53300
C203        C  0.01747890  0.54704204  0.76544485     0.09800
C204        C  0.98413402  0.49558068  0.76280968     0.20800
C205        C  0.06572562  0.44844866  0.75285613    -0.54100
C206        C  0.02125102  0.44926159  0.77193626     0.09900
C207        C  0.01894768  0.48656332  0.70556669    -0.53600
C208        C  0.97402740  0.48809327  0.72451004     0.10500
H209        H  0.09023737  0.57682707  0.74523931     0.15000
H210        H  0.94806874  0.49622341  0.77832503     0.00800
H211        H  0.09578737  0.41839836  0.75592916     0.15300
H212        H  0.01831745  0.48206841  0.67834009     0.15100
C213        C  0.42894091  0.00022505  0.77956428     0.86900
C214        C  0.42955343  0.04962809  0.75675321    -0.53300
C215        C  0.47201086  0.05360619  0.73581651     0.09800
C216        C  0.51043438  0.00625075  0.73961833     0.20800
C217        C  0.43496282  0.95232001  0.75545461    -0.54100
C218        C  0.47758393  0.95491839  0.73459140     0.09900
C219        C  0.48109644  0.00305570  0.79828044    -0.53600
C220        C  0.52383573  0.00642803  0.77766357     0.10500
H221        H  0.39900532  0.07953507  0.75780553     0.15000
H222        H  0.54517563  0.00859814  0.72292269     0.00800
H223        H  0.40808726  0.91882409  0.75524045     0.15300
H224        H  0.48441844  0.00249625  0.82560458     0.15100
C225        C  0.20648122  0.00486417  0.15835556     0.16400
C226        C  0.23537553  0.00273471  0.18846392    -0.32700
C227        C  0.28999125  0.00345982  0.18567245     0.20800
C228        C  0.31445933  0.00679253  0.15442105     0.02900
C229        C  0.28576909  0.00914306  0.12455964    -0.22400
C230        C  0.23153935  0.00779887  0.12729003     0.12100
S231        S  0.13991900  0.00253496  0.15550309    -0.06100
C232        C  0.14640414  0.00454570  0.11197631    -0.09500
C233        C  0.19759686  0.00786216  0.10085995    -0.26100
S234        S  0.38056346  0.00674454  0.15593868    -0.03300
C235        C  0.37614150  0.00156819  0.19937980    -0.16800
C236        C  0.32524750  0.00051489  0.21161450    -0.14800
H237        H  0.21623161  0.99994204  0.21287186     0.20600
H238        H  0.30496368  0.01123407  0.10012886     0.16600
H239        H  0.20965318  0.00924720  0.07456021     0.19100
H240        H  0.31478485  0.99749297  0.23812606     0.12500
C241        C  0.70777541  0.95387974  0.13813626     0.16400
C242        C  0.65648802  0.94050737  0.14624493    -0.32700
C243        C  0.63401866  0.96459180  0.17476821     0.20800
C244        C  0.66154742  0.99960699  0.19516325     0.02900
C245        C  0.71382779  0.01202812  0.18751764    -0.22400
C246        C  0.73619061  0.98861885  0.15826617     0.12100
S247        S  0.73860868  0.93374798  0.10206474    -0.06100
C248        C  0.79100407  0.97240894  0.11364812    -0.09500
C249        C  0.78475482  0.99875713  0.14453359    -0.26100
S250        S  0.62477871  0.02697014  0.22738630    -0.03300
C251        C  0.57202153  0.99157821  0.21234205    -0.16800
C252        C  0.58323624  0.95966367  0.18454987    -0.14800
H253        H  0.63416492  0.91422202  0.13004957     0.20600
H254        H  0.73536634  0.04021902  0.20284647     0.16600
H255        H  0.81271472  0.02632122  0.15519139     0.19100
H256        H  0.55506783  0.93506652  0.17147812     0.12500
C257        C  0.97564423  0.64492889  0.16699830     0.16400
C258        C  0.95927161  0.67003571  0.13704524    -0.32700
C259        C  0.96879648  0.72530811  0.13361749     0.20800
C260        C  0.99196665  0.75440158  0.15935960     0.02900
C261        C  0.00855442  0.72931948  0.18906494    -0.22400
C262        C  0.00059205  0.67399671  0.19200632     0.12100
S263        S  0.97024926  0.57790257  0.17570740    -0.06100
C264        C  0.00395191  0.58899694  0.21267766    -0.09500
C265        C  0.01708609  0.64224247  0.21805346    -0.26100
S266        S  0.00008052  0.82081077  0.15072102    -0.03300
C267        C  0.97373563  0.80952545  0.11136217    -0.16800
C268        C  0.95864228  0.75669234  0.10579416    -0.14800
H269        H  0.94102792  0.64729283  0.11700805     0.20600
H270        H  0.02796556  0.75180859  0.20874942     0.16600
H271        H  0.03853257  0.65690756  0.23966779     0.19100
H272        H  0.94164168  0.74197319  0.08256095     0.12500
C273        C  0.98476237  0.34298048  0.16533557     0.16400
C274        C  0.96629480  0.31561730  0.13674281    -0.32700
C275        C  0.97447751  0.26004326  0.13499865     0.20800
C276        C  0.99901227  0.23262149  0.16079528     0.02900
C277        C  0.01836765  0.26011438  0.18903061    -0.22400
C278        C  0.01108493  0.31580825  0.19047156     0.12100
S279        S  0.97823983  0.41034133  0.17272566    -0.06100
C280        C  0.01262261  0.40200463  0.20959731    -0.09500
C281        C  0.02776048  0.34950859  0.21559652    -0.26100
S282        S  0.00457702  0.16513192  0.15398729    -0.03300
C283        C  0.97520751  0.17419874  0.11537752    -0.16800
C284        C  0.96114516  0.22681466  0.10878389    -0.14800
H285        H  0.94665858  0.33672760  0.11665094     0.20600
H286        H  0.03853072  0.23906696  0.20892478     0.16600
H287        H  0.04946540  0.33655187  0.23747151     0.19100
H288        H  0.94295530  0.24022592  0.08567655     0.12500
C289        C  0.24891562  0.67211282  0.99680679     0.16400
C290        C  0.20031730  0.69173026  0.98680234    -0.32700
C291        C  0.18817640  0.74485278  0.99535327     0.20800
C292        C  0.22339101  0.77711111  0.01233577     0.02900
C293        C  0.27184073  0.75766476  0.02207098    -0.22400
C294        C  0.28346801  0.70444685  0.01425167     0.12100
S295        S  0.27044670  0.60822717  0.99052681    -0.06100
C296        C  0.32596851  0.62522531  0.01241585    -0.09500
C297        C  0.32759408  0.67787901  0.02323632    -0.26100
S298        S  0.20196770  0.84001242  0.02078988    -0.03300
C299        C  0.14447746  0.82288096  0.00166462    -0.16800
C300        C  0.14230618  0.77095793  0.98928363    -0.14800
H301        H  0.17286876  0.66646145  0.97360147     0.20600
H302        H  0.29892745  0.78267473  0.03578179     0.16600
H303        H  0.35910359  0.69546573  0.03749738     0.19100
H304        H  0.10919488  0.75345280  0.97660804     0.12500
C305        C  0.64399643  0.71825277  0.01830707     0.16400
C306        C  0.66628172  0.76890040  0.02324418    -0.32700
C307        C  0.71709415  0.77690088  0.01121970     0.20800
C308        C  0.74445230  0.73632256  0.99501922     0.02900
C309        C  0.72174447  0.68612751  0.98946370    -0.22400
C310        C  0.67102519  0.67806708  0.00153004     0.12100
S311        S  0.58403261  0.69944254  0.03258740    -0.06100
C312        C  0.59541764  0.63651575  0.01585434    -0.09500
C313        C  0.64311115  0.63143237  0.99957192    -0.26100
S314        S  0.80642956  0.75304070  0.98368928    -0.03300
C315        C  0.79514358  0.81576058  0.00031337    -0.16800
C316        C  0.74588373  0.82285089  0.01409303    -0.14800
H317        H  0.64527877  0.80037575  0.03635354     0.20600
H318        H  0.74304385  0.65441027  0.97681459     0.16600
H319        H  0.65693859  0.59524709  0.98734808     0.19100
H320        H  0.73224268  0.85933303  0.02607900     0.12500
C321        C  0.65248695  0.27853244  0.03914215     0.16400
C322        C  0.67653521  0.22951635  0.04642874    -0.32700
C323        C  0.72025926  0.21508339  0.02703186     0.20800
C324        C  0.73945700  0.24830963  0.00181884     0.02900
C325        C  0.71504236  0.29683981  0.99426748    -0.22400
C326        C  0.67122055  0.31108810  0.01345790     0.12100
S327        S  0.59873843  0.30322906  0.05940644    -0.06100
C328        C  0.60129205  0.35769529  0.03268713    -0.09500
C329        C  0.64201156  0.35647294  0.00961135    -0.26100
S330        S  0.79435017  0.22535132  0.98229170    -0.03300
C331        C  0.79100062  0.16986646  0.00785337    -0.16800
C332        C  0.74939691  0.16938819  0.03030932    -0.14800
H333        H  0.66186351  0.20383143  0.06633139     0.20600
H334        H  0.72976672  0.32255162  0.97439565     0.16600
H335        H  0.64906353  0.38665768  0.99052712     0.19100
H336        H  0.74190803  0.13819288  0.04866818     0.12500
C337        C  0.28024061  0.27556697  0.03432557     0.16400
C338        C  0.25845861  0.22445839  0.03612117    -0.32700
C339        C  0.21034010  0.21661785  0.02068080     0.20800
C340        C  0.18430898  0.25802089  0.00478145     0.02900
C341        C  0.20687763  0.30883709  0.00207100    -0.22400
C342        C  0.25569399  0.31629911  0.01688842     0.12100
S343        S  0.33793316  0.29318517  0.05194510    -0.06100
C344        C  0.33082387  0.35538256  0.03378339    -0.09500
C345        C  0.28482979  0.36199431  0.01610121    -0.26100
S346        S  0.12420136  0.24114246  0.99025895    -0.03300
C347        C  0.13523579  0.17736620  0.00500036    -0.16800
C348        C  0.18284354  0.16996449  0.02024702    -0.14800
H349        H  0.27804379  0.19224984  0.04913172     0.20600
H350        H  0.18722273  0.34111192  0.98916604     0.16600
H351        H  0.27387428  0.39794139  0.00268355     0.19100
H352        H  0.19578317  0.13291847  0.03158583     0.12500
C353        C  0.70892111  0.03804032  0.86968190     0.16400
C354        C  0.65747748  0.05123179  0.86238333    -0.32700
C355        C  0.63667943  0.03223508  0.83204041     0.20800
C356        C  0.66590089  0.00223463  0.80934182     0.02900
C357        C  0.71815391  0.98974320  0.81640003    -0.22400
C358        C  0.73890185  0.00809184  0.84729874     0.12100
S359        S  0.73844202  0.05310019  0.90684828    -0.06100
C360        C  0.79222067  0.01842172  0.89271376    -0.09500
C361        C  0.78749116  0.99728977  0.86025967    -0.26100
S362        S  0.63133226  0.98076823  0.77477414    -0.03300
C363        C  0.57701494  0.01155561  0.79181015    -0.16800
C364        C  0.58624929  0.03794927  0.82210395    -0.14800
H365        H  0.63396747  0.07373628  0.88026097     0.20600
H366        H  0.74100566  0.96540832  0.79916044     0.16600
H367        H  0.81668255  0.97299486  0.84772279     0.19100
H368        H  0.55707674  0.05923682  0.83671958     0.12500
C369        C  0.31846257  0.99549408  0.84803828     0.16400
C370        C  0.28954398  0.99447183  0.87815838    -0.32700
C371        C  0.23538839  0.99854260  0.87591997     0.20800
C372        C  0.21066427  0.00329186  0.84506040     0.02900
C373        C  0.23979832  0.00399083  0.81467899    -0.22400
C374        C  0.29437593  0.99992296  0.81694424     0.12100
S375        S  0.38452461  0.99266219  0.84601744    -0.06100
C376        C  0.38092062  0.99753167  0.80248708    -0.09500
C377        C  0.33000803  0.00058655  0.79065250    -0.26100
S378        S  0.14410372  0.00757771  0.84846222    -0.03300
C379        C  0.14997803  0.00247933  0.89189812    -0.16800
C380        C  0.20115837  0.99824166  0.90260886    -0.14800
H381        H  0.30855026  0.99095207  0.90241726     0.20600
H382        H  0.22083850  0.00772669  0.79043097     0.16600
H383        H  0.31979277  0.00429350  0.76423057     0.19100
H384        H  0.21292752  0.99453437  0.92876481     0.12500
C385        C  0.99708971  0.23890942  0.84723383     0.16400
C386        C  0.01578324  0.26555466  0.81855993    -0.32700
C387        C  0.00801427  0.32096315  0.81674554     0.20800
C388        C  0.98201137  0.34891240  0.84201946     0.02900
C389        C  0.96377708  0.32226755  0.87106643    -0.22400
C390        C  0.97231069  0.26670675  0.87312132     0.12100
S391        S  0.00356545  0.17184988  0.85415363    -0.06100
C392        C  0.97373975  0.18111470  0.89283931    -0.09500
C393        C  0.95910807  0.23370348  0.89955438    -0.26100
S394        S  0.97535148  0.41603143  0.83391599    -0.03300
C395        C  0.00901807  0.40611668  0.79649572    -0.16800
C396        C  0.02390873  0.35345225  0.79091523    -0.14800
H397        H  0.03582589  0.24402659  0.79854743     0.20600
H398        H  0.94405395  0.34383831  0.89118866     0.16600
H399        H  0.94050004  0.24714775  0.92272727     0.19100
H400        H  0.04461410  0.33932768  0.76867979     0.12500
C401        C  0.00632876  0.76032104  0.84122833     0.16400
C402        C  0.02909270  0.73100076  0.81466256    -0.32700
C403        C  0.01116117  0.67861147  0.80906310     0.20800
C404        C  0.97191675  0.65654787  0.82865988     0.02900
C405        C  0.94886200  0.68600485  0.85505513    -0.22400
C406        C  0.96734357  0.73804304  0.86104895     0.12100
S407        S  0.02422663  0.82351343  0.85326700    -0.06100
C408        C  0.97938747  0.81939192  0.88573022    -0.09500
C409        C  0.95191709  0.77168766  0.88671356    -0.26100
S410        S  0.95680221  0.59187274  0.81825746    -0.03300
C411        C  0.00416483  0.59411721  0.78719859    -0.16800
C412        C  0.02960811  0.64327327  0.78525594    -0.14800
H413        H  0.06012351  0.74788037  0.79944847     0.20600
H414        H  0.91859667  0.66870978  0.87071489     0.16600
H415        H  0.92282116  0.76183912  0.90560732     0.19100
H416        H  0.06026915  0.65313867  0.76751715     0.12500
C417        C  0.78732086  0.45789320  0.63145956     0.16400
C418        C  0.83935990  0.44538047  0.63814074    -0.32700
C419        C  0.86082059  0.46388176  0.66853637     0.20800
C420        C  0.83143707  0.49257338  0.69179434     0.02900
C421        C  0.77880649  0.50464946  0.68525330    -0.22400
C422        C  0.75745965  0.48700136  0.65432440     0.12100
S423        S  0.75662415  0.44285727  0.59461097    -0.06100
C424        C  0.70255572  0.47675561  0.60934619    -0.09500
C425        C  0.70821320  0.49752306  0.64190158    -0.26100
S426        S  0.86608507  0.51277629  0.72662874    -0.03300
C427        C  0.92106286  0.48360879  0.70913779    -0.16800
C428        C  0.91175070  0.45849092  0.67827920    -0.14800
H429        H  0.86269211  0.42356754  0.61983101     0.20600
H430        H  0.75599834  0.52804267  0.70302933     0.16600
H431        H  0.67914065  0.52129611  0.65494657     0.19100
H432        H  0.94093261  0.43792308  0.66328836     0.12500
C433        C  0.25086964  0.48778848  0.62421923     0.16400
C434        C  0.19701753  0.48588086  0.62930627    -0.32700
C435        C  0.17822206  0.48844097  0.66256114     0.20800
C436        C  0.21163994  0.49302210  0.68971108     0.02900
C437        C  0.26605432  0.49429771  0.68464480    -0.22400
C438        C  0.28505151  0.49145954  0.65108876     0.12100
S439        S  0.27973048  0.48695445  0.58553882    -0.06100
C440        C  0.33953448  0.49138666  0.60496816    -0.09500
C441        C  0.33647647  0.49304567  0.64021899    -0.26100
S442        S  0.18009355  0.49713413  0.72793589    -0.03300
C443        C  0.12116339  0.49178142  0.70710053    -0.16800
C444        C  0.12681436  0.48744304  0.67217883    -0.14800
H445        H  0.17075056  0.48296162  0.60808338     0.20600
H446        H  0.29227335  0.49778554  0.70584237     0.16600
H447        H  0.36961300  0.49629572  0.65681543     0.19100
H448        H  0.09545838  0.48410816  0.65428237     0.12500
C449        C  0.47882965  0.18884930  0.68871512     0.16400
C450        C  0.47107915  0.24151954  0.67782166    -0.32700
C451        C  0.49802740  0.25851150  0.64892781     0.20800
C452        C  0.53103278  0.22429003  0.63136127     0.02900
C453        C  0.53938078  0.17150433  0.64256119    -0.22400
C454        C  0.51245699  0.15456774  0.67176135     0.12100
S455        S  0.44820760  0.16111468  0.72261805    -0.06100
C456        C  0.48069869  0.10195806  0.71440199    -0.09500
C457        C  0.51413035  0.10459061  0.68659257    -0.26100
S458        S  0.55715708  0.25191201  0.59554563    -0.03300
C459        C  0.52373768  0.31028370  0.60475014    -0.16800
C460        C  0.49423904  0.30801729  0.63409504    -0.14800
H461        H  0.44457222  0.26799445  0.69112073     0.20600
H462        H  0.56505403  0.14466794  0.62886005     0.16600
H463        H  0.53746185  0.07161585  0.67724630     0.19100
H464        H  0.46953396  0.34006805  0.64327254     0.12500
C465        C  0.51346112  0.74110695  0.66221942     0.16400
C466        C  0.50350054  0.76767750  0.69308590    -0.32700
C467        C  0.50206956  0.82406037  0.69303198     0.20800
C468        C  0.51170174  0.85291184  0.66377034     0.02900
C469        C  0.52177136  0.82635537  0.63293285    -0.22400
C470        C  0.52182896  0.76990846  0.63280741     0.12100
S471        S  0.51393716  0.67284959  0.65642780    -0.06100
C472        C  0.52442847  0.68280818  0.61366515    -0.09500
C473        C  0.52810129  0.73687451  0.60504057    -0.26100
S474        S  0.50792429  0.92108959  0.66907302    -0.03300
C475        C  0.49159639  0.91065199  0.71091192    -0.16800
C476        C  0.49013231  0.85693525  0.72003906    -0.14800
H477        H  0.49595603  0.74532899  0.71602131     0.20600
H478        H  0.52818860  0.84873092  0.60986591     0.16600
H479        H  0.53398879  0.75146077  0.57952785     0.19100
H480        H  0.48043818  0.84270177  0.74515182     0.12500
C481        C  0.83494669  0.21415101  0.46933229     0.16400
C482        C  0.81294937  0.26464667  0.46483707    -0.32700
C483        C  0.76606006  0.27522861  0.48153007     0.20800
C484        C  0.74152165  0.23706093  0.50143780     0.02900
C485        C  0.76418499  0.18684980  0.50658496    -0.22400
C486        C  0.81156731  0.17650853  0.49018945     0.12100
S487        S  0.89180791  0.19399543  0.45130270    -0.06100
C488        C  0.88540512  0.13497597  0.47333986    -0.09500
C489        C  0.84049628  0.13085150  0.49265603    -0.26100
S490        S  0.68277778  0.25667391  0.51736395    -0.03300
C491        C  0.69225629  0.31703612  0.49737845    -0.16800
C492        C  0.73843112  0.32162337  0.47967621    -0.14800
H493        H  0.83148868  0.29435061  0.44892897     0.20600
H494        H  0.74562814  0.15712994  0.52246660     0.16600
H495        H  0.83054972  0.09702584  0.50848876     0.19100
H496        H  0.75014546  0.35633300  0.46514804     0.12500
C497        C  0.29592221  0.25137010  0.50051725     0.16400
C498        C  0.27162826  0.20256964  0.50710258    -0.32700
C499        C  0.22503995  0.19198503  0.49048443     0.20800
C500        C  0.20339094  0.22809015  0.46803197     0.02900
C501        C  0.22739712  0.27750065  0.46173795    -0.22400
C502        C  0.27399549  0.28832956  0.47871205     0.12100
S503        S  0.35381229  0.27021240  0.51730128    -0.06100
C504        C  0.34814050  0.32909246  0.49530284    -0.09500
C505        C  0.30363489  0.33365913  0.47598324    -0.26100
S506        S  0.14695290  0.20646265  0.45003039    -0.03300
C507        C  0.15288885  0.14855387  0.47338292    -0.16800
C508        C  0.19613380  0.14661608  0.49381057    -0.14800
H509        H  0.28853827  0.17384376  0.52427804     0.20600
H510        H  0.21069090  0.30604109  0.44435549     0.16600
H511        H  0.29439254  0.36751895  0.46008098     0.19100
H512        H  0.20574314  0.11362537  0.51033408     0.12500
C513        C  0.31384802  0.76918169  0.49938637     0.16400
C514        C  0.29141748  0.81981272  0.50461366    -0.32700
C515        C  0.24265858  0.82957026  0.49010537     0.20800
C516        C  0.21786343  0.79096226  0.47077873     0.02900
C517        C  0.24022733  0.74042869  0.46560901    -0.22400
C518        C  0.28838000  0.73030010  0.48065167     0.12100
S519        S  0.37254082  0.74910276  0.51487107    -0.06100
C520        C  0.36195405  0.68727205  0.49658422    -0.09500
C521        C  0.31555024  0.68311585  0.47920348    -0.26100
S522        S  0.15873608  0.81002203  0.45575729    -0.03300
C523        C  0.16659518  0.87041410  0.47639129    -0.16800
C524        C  0.21342628  0.87532970  0.49340584    -0.14800
H525        H  0.31081879  0.85002112  0.51964014     0.20600
H526        H  0.22056736  0.71001934  0.45089000     0.16600
H527        H  0.30277690  0.64769344  0.46575508     0.19100
H528        H  0.22478583  0.90999768  0.50811618     0.12500
C529        C  0.75156974  0.75507208  0.50126640     0.16400
C530        C  0.77202014  0.80655139  0.50522904    -0.32700
C531        C  0.82292573  0.81536885  0.49399525     0.20800
C532        C  0.85177469  0.77515613  0.47861979     0.02900
C533        C  0.83153247  0.72330956  0.47502956    -0.22400
C534        C  0.78091056  0.71408675  0.48707086     0.12100
S535        S  0.69040022  0.73703573  0.51297961    -0.06100
C536        C  0.70448718  0.67304820  0.49948981    -0.09500
C537        C  0.75420964  0.66646707  0.48630223    -0.26100
S538        S  0.91202900  0.79483490  0.46549245    -0.03300
C539        C  0.89894610  0.85753380  0.48200163    -0.16800
C540        C  0.84993545  0.86234232  0.49650332    -0.14800
H541        H  0.74925475  0.83832392  0.51668712     0.20600
H542        H  0.85425991  0.69161318  0.46346905     0.16600
H543        H  0.76945214  0.62938639  0.47601802     0.19100
H544        H  0.83484665  0.89835645  0.50830959     0.12500
C545        C  0.26713680  0.53658968  0.36432545     0.16400
C546        C  0.21643536  0.55139248  0.35563703    -0.32700
C547        C  0.19439545  0.52693351  0.32719016     0.20800
C548        C  0.22183660  0.48967279  0.30816608     0.02900
C549        C  0.27318900  0.47601881  0.31627529    -0.22400
C550        C  0.29521839  0.50024058  0.34488460     0.12100
S551        S  0.29820492  0.55777454  0.39975026    -0.06100
C552        C  0.35016160  0.51805623  0.38820456    -0.09500
C553        C  0.34350372  0.48991411  0.35823406    -0.26100
S554        S  0.18681337  0.46137944  0.27632676    -0.03300
C555        C  0.13411493  0.49980050  0.28874688    -0.16800
C556        C  0.14455759  0.53377696  0.31578504    -0.14800
H557        H  0.19451118  0.57940700  0.37106835     0.20600
H558        H  0.29441719  0.44655456  0.30155034     0.18600
H559        H  0.37108522  0.46145036  0.34785212     0.19100
H560        H  0.11650116  0.56072299  0.32721926     0.12500
C561        C  0.76956345  0.50546075  0.34378227     0.16400
C562        C  0.80046113  0.51307872  0.31464744    -0.32700
C563        C  0.85359133  0.49989215  0.31656519     0.20800
C564        C  0.87469083  0.48010019  0.34616964     0.02900
C565        C  0.84415310  0.47315718  0.37523711    -0.22400
C566        C  0.79142544  0.48638166  0.37332061     0.12100
S567        S  0.70407954  0.51791162  0.34706206    -0.06100
C568        C  0.70683161  0.49790980  0.38880141    -0.09500
C569        C  0.75598933  0.48234859  0.39907484    -0.26100
S570        S  0.93936460  0.46637003  0.34378261    -0.03300
C571        C  0.93903171  0.48807626  0.30234353    -0.16800
C572        C  0.89040344  0.50452912  0.29122743    -0.14800
H573        H  0.78385414  0.52844947  0.29153955     0.20600
H574        H  0.86081481  0.45805362  0.39842038     0.16600
H575        H  0.76543420  0.46856862  0.42426194     0.19100
H576        H  0.88251112  0.52022792  0.26630122     0.12500
C577        C  0.52748505  0.77463156  0.36700269     0.16400
C578        C  0.52768947  0.82915674  0.35881193    -0.32700
C579        C  0.50801380  0.84413005  0.32727674     0.20800
C580        C  0.48946836  0.80624081  0.30466095     0.02900
C581        C  0.49036861  0.75132322  0.31253440    -0.22400
C582        C  0.50947373  0.73640933  0.34441176     0.12100
S583        S  0.54542240  0.74984811  0.40522497    -0.06100
C584        C  0.52829430  0.68695766  0.39114666    -0.09500
C585        C  0.51039970  0.68561329  0.35800700    -0.26100
S586        S  0.46426483  0.83311718  0.26862930    -0.03300
C587        C  0.47881828  0.89609604  0.28423786    -0.16800
C588        C  0.50264315  0.89560938  0.31555651    -0.14800
H589        H  0.54115398  0.85884716  0.37674644     0.20600
H590        H  0.47536685  0.72176564  0.29503650     0.16600
H591        H  0.49662610  0.65001241  0.34518954     0.19100
H592        H  0.51396773  0.93107896  0.32948856     0.12500
C593        C  0.49960546  0.14996168  0.33650999     0.16400
C594        C  0.51268625  0.17746363  0.36619760    -0.32700
C595        C  0.51183106  0.23361499  0.36556106     0.20800
C596        C  0.49888095  0.26161265  0.33662310     0.02900
C597        C  0.48512874  0.23404567  0.30687073    -0.22400
C598        C  0.48555390  0.17765336  0.30764980     0.12100
S599        S  0.49919083  0.08172542  0.33218366    -0.06100
C600        C  0.47886031  0.09027691  0.29121439    -0.09500
C601        C  0.47307787  0.14350528  0.28164869    -0.26100
S602        S  0.50014278  0.32995963  0.34170200    -0.03300
C603        C  0.51727503  0.32042614  0.38349063    -0.16800
C604        C  0.52228597  0.26688749  0.39228670    -0.14800
H605        H  0.52299714  0.15597182  0.38892734     0.20600
H606        H  0.47435349  0.25550854  0.28421531     0.16600
H607        H  0.46089277  0.15646322  0.25680968     0.19100
H608        H  0.53215473  0.25280473  0.41731977     0.12500
loop_ 
_geom_bond_atom_site_label_1 
_geom_bond_atom_site_label_2 
_geom_bond_distance 
_geom_bond_site_symmetry_2 
_ccdc_geom_bond_type 
O1           C12   1.296       .  A
O1          Eu37   2.495       .  S
O2           C13   1.300       .  A
O2          Eu36   2.508       .  S
O3           C14   1.287       .  A
O3           Eu9   2.442       .  S
O4           C15   1.288       .  A
O4           Eu9   2.446       .  S
O5           C15   1.289       .  A
O5          Eu39   2.454       .  S
O6           C14   1.288       .  A
O6          Eu38   2.446       .  S
O7           C13   1.287       .  A
O7           Eu9   2.438       .  S
O8           C12   1.292       .  A
O8           Eu9   2.461       .  S
Eu9          O19   2.349       .  S
Eu9          O11   2.351       .  S
Eu9          O10   2.353       .  S
Eu9          O17   2.348       .  S
O10         Eu39   2.348       .  S
O10         Eu36   2.370       .  S
O11         Eu37   2.369       .  S
O11         Eu38   2.357       .  S
C12         C603   1.488       .  S
C13         C459   1.477       .  S
C14         C491   1.458       .  S
C15         C504   1.462       .  S
H16          O17   0.964       .  S
O17         Eu38   2.346       .  S
O17         Eu36   2.372       .  S
H18          O19   0.968       .  S
O19         Eu37   2.360       .  S
O19         Eu39   2.352       .  S
O20          C43   1.303       .  A
O20         Eu36   2.526       .  S
O21          C44   1.295       .  A
O21         Eu37   2.480       .  S
O22          C45   1.290       .  A
O22         Eu38   2.446       .  S
O23          C46   1.286       .  A
O23         Eu39   2.426       .  S
O24          C47   1.285       .  A
O24         Eu39   2.426       .  S
O25          C48   1.289       .  A
O25         Eu38   2.444       .  S
O26          C49   1.288       .  A
O26         Eu40   2.447       .  S
O27          C50   1.288       .  A
O27         Eu40   2.446       .  S
O28          C49   1.290       .  A
O28         Eu38   2.461       .  S
O29          C50   1.293       .  A
O29         Eu39   2.474       .  S
O30          C45   1.301       .  A
O30         Eu36   2.517       .  S
O31          C48   1.295       .  A
O31         Eu37   2.489       .  S
O32          C47   1.296       .  A
O32         Eu37   2.494       .  S
O33          C46   1.301       .  A
O33         Eu36   2.525       .  S
O34          C43   1.291       .  A
O34         Eu40   2.459       .  S
O35          C44   1.291       .  A
O35         Eu40   2.456       .  S
Eu36         O54   2.370       .  S
Eu36         O42   2.379       .  S
Eu37         O41   2.363       .  S
Eu37         O52   2.374       .  S
Eu38         O52   2.345       .  S
Eu38         O42   2.360       .  S
Eu39         O41   2.335       .  S
Eu39         O54   2.352       .  S
Eu40         O41   2.350       .  S
Eu40         O52   2.353       .  S
Eu40         O54   2.355       .  S
Eu40         O42   2.351       .  S
C43         C472   1.499       .  S
C44         C584   1.479       .  S
C45         C424   1.487       .  S
C46         C440   1.490       .  S
C47         C552   1.471       .  S
C48         C568   1.480       .  S
C49         C536   1.471       .  S
C50         C520   1.474       .  S
H51          O52   0.965       .  S
H53          O54   0.969       .  S
N55          C60   1.353       .  A
N55          C59   1.353   1_455  A
N55          H87   1.042       .  S
N56          C63   1.350       .  A
N56          C64   1.350   1_565  A
N57          C62   1.349       .  A
N57          C61   1.349   1_455  A
N57          H88   1.042       .  S
N58          C65   1.352   1_545  A
N58          C66   1.351       .  A
C59          C67   1.388   1_655  A
C59          C75   1.415       .  A
C60          C76   1.414       .  A
C60          C68   1.386       .  A
C61          C69   1.388       .  A
C61          C78   1.408       .  A
C62          C77   1.407       .  A
C62          C70   1.387       .  A
C63          C75   1.413       .  A
C63          C71   1.388       .  A
C64          C78   1.408       .  A
C64          C72   1.384       .  A
C65          C73   1.385       .  A
C65          C76   1.412       .  A
C66          C74   1.385       .  A
C66          C77   1.412       .  A
C67          C68   1.376       .  A
C67          H79   1.082   1_455  S
C68          H80   1.082       .  S
C69          C70   1.374   1_655  A
C69          H81   1.082       .  S
C70          H82   1.082       .  S
C71          C72   1.374   1_565  A
C71          H83   1.082       .  S
C72          H84   1.082       .  S
C73          C74   1.375   1_565  A
C73          H85   1.082       .  S
C74          H86   1.082       .  S
C75         C539   1.489       .  S
C76         C523   1.491       .  S
C77         C507   1.479       .  S
C78         C488   1.478       .  S
O89         C100   1.293       .  A
O89        Eu125   2.470       .  S
O90         C101   1.295       .  A
O90        Eu124   2.481       .  S
O91         C102   1.291       .  A
O91         Eu97   2.460   1_455  S
O92         C103   1.291   1_556  A
O92         Eu97   2.466       .  S
O93         C103   1.289       .  A
O93        Eu127   2.446       .  S
O94         C102   1.287   1_554  A
O94        Eu126   2.437       .  S
O95         C101   1.294       .  A
O95         Eu97   2.473   1_554  S
O96         C100   1.292       .  A
O96         Eu97   2.464       .  S
Eu97        O107   2.360       .  S
Eu97         O99   2.357   1_655  S
Eu97         O98   2.348   1_556  S
Eu97        O105   2.369   1_656  S
O98        Eu127   2.342       .  S
O98        Eu124   2.361       .  S
O99        Eu125   2.357   1_455  S
O99        Eu126   2.349   1_556  S
C100        C408   1.473       .  S
C101        C267   1.483       .  S
C102        C299   1.464   1_556  S
C103        C315   1.471       .  S
H104        O105   0.965       .  S
O105       Eu126   2.351       .  S
O105       Eu124   2.363   1_455  S
H106        O107   0.966       .  S
O107       Eu125   2.379       .  S
O107       Eu127   2.366   1_556  S
O108        C131   1.295       .  A
O108       Eu124   2.481   1_545  S
O109        C132   1.294       .  A
O109       Eu125   2.475   1_545  S
O110        C133   1.288       .  A
O110       Eu126   2.437   1_545  S
O111        C134   1.290       .  A
O111       Eu127   2.451       .  S
O112        C135   1.290       .  A
O112       Eu127   2.446   1_546  S
O113        C136   1.289       .  A
O113       Eu126   2.441   1_546  S
O114        C137   1.287       .  A
O114       Eu128   2.444   1_455  S
O115        C138   1.288       .  A
O115       Eu128   2.451       .  S
O116        C137   1.289       .  A
O116       Eu126   2.449   1_545  S
O117        C138   1.290       .  A
O117       Eu127   2.459   1_545  S
O118        C133   1.296   1_565  A
O118       Eu124   2.496   1_455  S
O119        C136   1.299       .  A
O119       Eu125   2.510   1_445  S
O120        C135   1.296       .  A
O120       Eu125   2.491   1_545  S
O121        C134   1.296       .  A
O121       Eu124   2.495       .  S
O122        C131   1.290       .  A
O122       Eu128   2.445       .  S
O123        C132   1.290       .  A
O123       Eu128   2.452   1_556  S
Eu124       O142   2.368   1_565  S
Eu124       O130   2.354   1_665  S
Eu125       O129   2.364   1_565  S
Eu125       O140   2.351   1_665  S
Eu126       O140   2.342   1_564  S
Eu126       O130   2.337   1_565  S
Eu127       O129   2.348   1_564  S
Eu127       O142   2.351   1_565  S
Eu128       O129   2.335   1_554  S
Eu128       O140   2.352   1_654  S
Eu128       O142   2.360       .  S
Eu128       O130   2.349   1_655  S
C131        C283   1.476       .  S
C132        C392   1.475       .  S
C133        C232   1.484       .  S
C134        C248   1.481       .  S
C135        C360   1.477       .  S
C136        C379   1.489       .  S
C137        C347   1.463       .  S
C138        C331   1.466       .  S
H139        O140   0.965       .  S
H141        O142   0.965       .  S
N143        C148   1.352       .  A
N143        C147   1.354       .  A
N143        H175   1.042       .  S
N144        C151   1.348       .  A
N144        C152   1.348       .  A
N145        C150   1.352       .  A
N145        C149   1.354       .  A
N145        H176   1.042       .  S
N146        C153   1.353       .  A
N146        C154   1.354       .  A
C147        C155   1.388       .  A
C147        C163   1.415       .  A
C148        C164   1.411       .  A
C148        C156   1.386       .  A
C149        C157   1.386   1_554  A
C149        C166   1.414       .  A
C150        C165   1.413       .  A
C150        C158   1.387   1_554  A
C151        C163   1.409       .  A
C151        C159   1.387       .  A
C152        C166   1.407       .  A
C152        C160   1.386       .  A
C153        C161   1.384       .  A
C153        C164   1.413       .  A
C154        C162   1.388       .  A
C154        C165   1.418       .  A
C155        C156   1.374       .  A
C155        H167   1.081       .  S
C156        H168   1.082       .  S
C157        C158   1.375       .  A
C157        H169   1.082       .  S
C158        H170   1.082       .  S
C159        C160   1.374       .  A
C159        H171   1.082       .  S
C160        H172   1.082       .  S
C161        C162   1.375       .  A
C161        H173   1.082       .  S
C162        H174   1.081       .  S
C163        C344   1.487       .  S
C164        C328   1.486       .  S
C165        C312   1.492       .  S
C166        C296   1.484       .  S
C177        C178   1.536       .  S
C177        C183   1.533       .  S
C177        C181   1.532       .  S
C177        C555   1.521       .  S
C178        H185   1.085       .  S
C178        C179   1.364       .  D
C179        C180   1.546   1_455  S
C179        C280   1.486       .  S
C180        C184   1.552       .  S
C180        C182   1.546   1_655  S
C180        H186   1.109       .  S
C181        H187   1.086       .  S
C181        C182   1.368       .  D
C182        C264   1.487       .  S
C183        H188   1.086       .  S
C183        C184   1.371   1_455  D
C184        C571   1.491       .  S
C189        C190   1.533       .  S
C189        C195   1.541       .  S
C189        C193   1.528   1_565  S
C189        C235   1.519   1_565  S
C190        H197   1.086       .  S
C190        C191   1.367       .  D
C191        C192   1.550       .  S
C191        C587   1.487       .  S
C192        C196   1.541       .  S
C192        C194   1.549   1_565  S
C192        H198   1.110       .  S
C193        H199   1.087       .  S
C193        C194   1.364       .  D
C194        C600   1.482       .  S
C195        H200   1.084   1_565  S
C195        C196   1.369       .  D
C196        C251   1.485       .  S
C201        C202   1.530       .  S
C201        C207   1.547       .  S
C201        C205   1.530       .  S
C201        C443   1.530       .  S
C202        H209   1.084       .  S
C202        C203   1.369       .  D
C203        C204   1.550   1_455  S
C203        C411   1.493       .  S
C204        C208   1.548       .  S
C204        C206   1.546   1_655  S
C204        H210   1.109       .  S
C205        H211   1.086       .  S
C205        C206   1.367       .  D
C206        C395   1.485       .  S
C207        H212   1.082       .  S
C207        C208   1.374   1_455  D
C208        C427   1.501       .  S
C213        C214   1.531       .  S
C213        C219   1.539       .  S
C213        C217   1.535   1_545  S
C213        C376   1.529   1_545  S
C214        H221   1.086       .  S
C214        C215   1.370       .  D
C215        C216   1.551       .  S
C215        C456   1.494       .  S
C216        C220   1.545       .  S
C216        C218   1.549   1_545  S
C216        H222   1.110       .  S
C217        H223   1.086       .  S
C217        C218   1.370       .  D
C218        C475   1.489       .  S
C219        H224   1.084       .  S
C219        C220   1.368       .  D
C220        C363   1.488       .  S
C225        C230   1.385       .  A
C225        C226   1.409       .  A
C225        S231   1.719       .  A
C226        C227   1.410       .  A
C226        H237   1.083   1_545  S
C227        C236   1.376       .  A
C227        C228   1.385       .  A
C228        C229   1.398       .  A
C228        S234   1.703       .  A
C229        C230   1.400       .  A
C229        H238   1.083       .  S
C230        C233   1.366       .  A
S231        C232   1.728       .  A
C232        C233   1.389       .  A
C233        H239   1.083       .  S
S234        C235   1.725       .  A
C235        C236   1.394       .  A
C236        H240   1.083   1_545  S
C241        C246   1.387       .  A
C241        C242   1.397       .  A
C241        S247   1.702       .  A
C242        C243   1.398       .  A
C242        H253   1.083       .  S
C243        C252   1.367       .  A
C243        C244   1.386       .  A
C244        C245   1.412   1_565  A
C244        S250   1.721   1_565  A
C245        C246   1.413   1_545  A
C245        H254   1.083       .  S
C246        C249   1.383       .  A
S247        C248   1.723       .  A
C248        C249   1.393       .  A
C249        H255   1.083   1_565  S
S250        C251   1.728   1_545  A
C251        C252   1.384       .  A
C252        H256   1.083       .  S
C257        C262   1.386   1_655  A
C257        C258   1.409       .  A
C257        S263   1.717       .  A
C258        C259   1.410       .  A
C258        H269   1.083       .  S
C259        C268   1.379       .  A
C259        C260   1.386       .  A
C260        C261   1.402   1_655  A
C260        S266   1.708   1_655  A
C261        C262   1.403       .  A
C261        H270   1.083       .  S
C262        C265   1.372       .  A
S263        C264   1.726   1_655  A
C264        C265   1.389       .  A
C265        H271   1.083       .  S
S266        C267   1.723   1_455  A
C267        C268   1.393       .  A
C268        H272   1.083       .  S
C273        C278   1.386   1_655  A
C273        C274   1.404       .  A
C273        S279   1.716       .  A
C274        C275   1.406       .  A
C274        H285   1.083       .  S
C275        C284   1.371       .  A
C275        C276   1.386       .  A
C276        C277   1.403   1_655  A
C276        S282   1.713   1_655  A
C277        C278   1.405       .  A
C277        H286   1.083       .  S
C278        C281   1.371       .  A
S279        C280   1.723   1_655  A
C280        C281   1.390       .  A
C281        H287   1.083       .  S
S282        C283   1.723   1_455  A
C283        C284   1.390       .  A
C284        H288   1.083       .  S
C289        C294   1.387   1_556  A
C289        C290   1.404       .  A
C289        S295   1.707       .  A
C290        C291   1.403       .  A
C290        H301   1.083       .  S
C291        C300   1.372       .  A
C291        C292   1.388   1_556  A
C292        C293   1.396       .  A
C292        S298   1.697       .  A
C293        C294   1.396       .  A
C293        H302   1.083       .  S
C294        C297   1.366       .  A
S295        C296   1.728   1_556  A
C296        C297   1.383       .  A
C297        H303   1.083       .  S
S298        C299   1.720       .  A
C299        C300   1.386   1_554  A
C300        H304   1.083       .  S
C305        C310   1.386       .  A
C305        C306   1.403       .  A
C305        S311   1.707       .  A
C306        C307   1.403       .  A
C306        H317   1.083       .  S
C307        C316   1.371       .  A
C307        C308   1.387   1_554  A
C308        C309   1.401       .  A
C308        S314   1.707       .  A
C309        C310   1.402   1_556  A
C309        H318   1.083       .  S
C310        C313   1.371   1_554  A
S311        C312   1.728       .  A
C312        C313   1.388   1_554  A
C313        H319   1.083       .  S
S314        C315   1.721   1_556  A
C315        C316   1.388       .  A
C316        H320   1.083       .  S
C321        C326   1.387       .  A
C321        C322   1.404       .  A
C321        S327   1.709       .  A
C322        C323   1.404       .  A
C322        H333   1.083       .  S
C323        C332   1.373       .  A
C323        C324   1.388       .  A
C324        C325   1.400   1_554  A
C324        S330   1.704   1_554  A
C325        C326   1.401   1_556  A
C325        H334   1.083       .  S
C326        C329   1.370       .  A
S327        C328   1.726       .  A
C328        C329   1.385       .  A
C329        H335   1.083   1_554  S
S330        C331   1.720   1_556  A
C331        C332   1.387       .  A
C332        H336   1.083       .  S
C337        C342   1.386       .  A
C337        C338   1.397       .  A
C337        S343   1.702       .  A
C338        C339   1.398       .  A
C338        H349   1.083       .  S
C339        C348   1.364       .  A
C339        C340   1.387       .  A
C340        C341   1.401       .  A
C340        S346   1.706   1_554  A
C341        C342   1.402       .  A
C341        H350   1.083   1_554  S
C342        C345   1.366       .  A
S343        C344   1.725       .  A
C344        C345   1.389       .  A
C345        H351   1.083       .  S
S346        C347   1.723   1_556  A
C347        C348   1.382       .  A
C348        H352   1.083       .  S
C353        C358   1.387       .  A
C353        C354   1.397       .  A
C353        S359   1.699       .  A
C354        C355   1.398       .  A
C354        H365   1.083       .  S
C355        C364   1.367       .  A
C355        C356   1.385       .  A
C356        C357   1.411   1_545  A
C356        S362   1.720   1_545  A
C357        C358   1.411   1_565  A
C357        H366   1.083       .  S
C358        C361   1.382   1_545  A
S359        C360   1.722       .  A
C360        C361   1.391   1_545  A
C361        H367   1.083       .  S
S362        C363   1.728   1_565  A
C363        C364   1.387       .  A
C364        H368   1.083       .  S
C369        C374   1.385       .  A
C369        C370   1.400       .  A
C369        S375   1.704       .  A
C370        C371   1.401       .  A
C370        H381   1.083       .  S
C371        C380   1.370       .  A
C371        C372   1.385   1_565  A
C372        C373   1.412       .  A
C372        S378   1.721       .  A
C373        C374   1.412   1_545  A
C373        H382   1.083       .  S
C374        C377   1.382   1_565  A
S375        C376   1.728       .  A
C376        C377   1.397   1_565  A
C377        H383   1.083       .  S
S378        C379   1.729       .  A
C379        C380   1.391   1_545  A
C380        H384   1.083       .  S
C385        C390   1.387       .  A
C385        C386   1.399   1_655  A
C385        S391   1.707   1_655  A
C386        C387   1.401       .  A
C386        H397   1.083       .  S
C387        C396   1.367       .  A
C387        C388   1.386   1_455  A
C388        C389   1.407       .  A
C388        S394   1.717       .  A
C389        C390   1.408       .  A
C389        H398   1.083       .  S
C390        C393   1.374       .  A
S391        C392   1.721   1_455  A
C392        C393   1.391       .  A
C393        H399   1.083       .  S
S394        C395   1.726   1_655  A
C395        C396   1.387       .  A
C396        H400   1.083       .  S
C401        C406   1.387   1_455  A
C401        C402   1.403       .  A
C401        S407   1.712       .  A
C402        C403   1.405       .  A
C402        H413   1.083       .  S
C403        C412   1.371       .  A
C403        C404   1.385   1_455  A
C404        C405   1.403       .  A
C404        S410   1.712       .  A
C405        C406   1.405       .  A
C405        H414   1.083       .  S
C406        C409   1.372       .  A
S407        C408   1.723   1_455  A
C408        C409   1.387       .  A
C409        H415   1.083       .  S
S410        C411   1.725   1_655  A
C411        C412   1.394       .  A
C412        H416   1.081       .  S
C417        C422   1.387       .  A
C417        C418   1.403       .  A
C417        S423   1.702       .  A
C418        C419   1.402       .  A
C418        H429   1.083       .  S
C419        C428   1.376       .  A
C419        C420   1.385       .  A
C420        C421   1.414       .  A
C420        S426   1.720       .  A
C421        C422   1.413       .  A
C421        H430   1.082       .  S
C422        C425   1.388       .  A
S423        C424   1.726       .  A
C424        C425   1.394       .  A
C425        H431   1.083       .  S
S426        C427   1.731       .  A
C427        C428   1.392       .  A
C428        H432   1.082       .  S
C433        C438   1.386       .  A
C433        C434   1.401       .  A
C433        S439   1.695       .  A
C434        C435   1.399       .  A
C434        H445   1.083       .  S
C435        C444   1.375       .  A
C435        C436   1.384       .  A
C436        C437   1.414       .  A
C436        S442   1.713       .  A
C437        C438   1.412       .  A
C437        H446   1.083       .  S
C438        C441   1.390       .  A
S439        C440   1.728       .  A
C440        C441   1.395       .  A
C441        H447   1.082       .  S
S442        C443   1.736       .  A
C443        C444   1.391       .  A
C444        H448   1.080       .  S
C449        C454   1.386       .  A
C449        C450   1.401       .  A
C449        S455   1.700       .  A
C450        C451   1.399       .  A
C450        H461   1.083       .  S
C451        C460   1.375       .  A
C451        C452   1.387       .  A
C452        C453   1.410       .  A
C452        S458   1.711       .  A
C453        C454   1.408       .  A
C453        H462   1.083       .  S
C454        C457   1.382       .  A
S455        C456   1.727       .  A
C456        C457   1.393       .  A
C457        H463   1.082       .  S
S458        C459   1.730       .  A
C459        C460   1.383       .  A
C460        H464   1.083       .  S
C465        C470   1.385       .  A
C465        C466   1.409       .  A
C465        S471   1.720       .  A
C466        C467   1.409       .  A
C466        H477   1.083       .  S
C467        C476   1.378       .  A
C467        C468   1.386       .  A
C468        C469   1.408       .  A
C468        S474   1.719       .  A
C469        C470   1.411       .  A
C469        H478   1.083       .  S
C470        C473   1.379       .  A
S471        C472   1.728       .  A
C472        C473   1.398       .  A
C473        H479   1.083       .  S
S474        C475   1.724       .  A
C475        C476   1.392       .  A
C476        H480   1.083       .  S
C481        C486   1.387       .  A
C481        C482   1.396       .  A
C481        S487   1.700       .  A
C482        C483   1.397       .  A
C482        H493   1.083       .  S
C483        C492   1.363       .  A
C483        C484   1.388       .  A
C484        C485   1.400       .  A
C484        S490   1.706       .  A
C485        C486   1.401       .  A
C485        H494   1.083       .  S
C486        C489   1.367       .  A
S487        C488   1.723       .  A
C488        C489   1.385       .  A
C489        H495   1.083       .  S
S490        C491   1.722       .  A
C491        C492   1.380       .  A
C492        H496   1.084       .  S
C497        C502   1.388       .  A
C497        C498   1.395       .  A
C497        S503   1.701       .  A
C498        C499   1.396       .  A
C498        H509   1.083       .  S
C499        C508   1.362       .  A
C499        C500   1.387       .  A
C500        C501   1.403       .  A
C500        S506   1.709       .  A
C501        C502   1.404       .  A
C501        H510   1.083       .  S
C502        C505   1.370       .  A
S503        C504   1.718       .  A
C504        C505   1.386       .  A
C505        H511   1.083       .  S
S506        C507   1.726       .  A
C507        C508   1.381       .  A
C508        H512   1.083       .  S
C513        C518   1.387       .  A
C513        C514   1.405       .  A
C513        S519   1.710       .  A
C514        C515   1.405       .  A
C514        H525   1.083       .  S
C515        C524   1.374       .  A
C515        C516   1.387       .  A
C516        C517   1.402       .  A
C516        S522   1.706       .  A
C517        C518   1.402       .  A
C517        H526   1.083       .  S
C518        C521   1.372       .  A
S519        C520   1.726       .  A
C520        C521   1.386       .  A
C521        H527   1.083       .  S
S522        C523   1.725       .  A
C523        C524   1.390       .  A
C524        H528   1.083       .  S
C529        C534   1.387       .  A
C529        C530   1.399       .  A
C529        S535   1.700       .  A
C530        C531   1.399       .  A
C530        H541   1.083       .  S
C531        C540   1.368       .  A
C531        C532   1.386       .  A
C532        C533   1.404       .  A
C532        S538   1.705       .  A
C533        C534   1.404       .  A
C533        H542   1.083       .  S
C534        C537   1.375       .  A
S535        C536   1.722       .  A
C536        C537   1.389       .  A
C537        H543   1.083       .  S
S538        C539   1.727       .  A
C539        C540   1.387       .  A
C540        H544   1.083       .  S
C545        C550   1.388       .  A
C545        C546   1.402       .  A
C545        S551   1.700       .  A
C546        C547   1.401       .  A
C546        H557   1.083       .  S
C547        C556   1.374       .  A
C547        C548   1.385       .  A
C548        C549   1.405       .  A
C548        S554   1.704       .  A
C549        C550   1.404       .  A
C549        H558   1.083       .  S
C550        C553   1.378       .  A
S551        C552   1.724       .  A
C552        C553   1.387       .  A
C553        H559   1.083       .  S
S554        C555   1.730       .  A
C555        C556   1.390       .  A
C556        H560   1.083       .  S
C561        C566   1.385       .  A
C561        C562   1.409       .  A
C561        S567   1.718       .  A
C562        C563   1.410       .  A
C562        H573   1.083       .  S
C563        C572   1.379       .  A
C563        C564   1.386       .  A
C564        C565   1.399       .  A
C564        S570   1.702       .  A
C565        C566   1.400       .  A
C565        H574   1.083       .  S
C566        C569   1.366       .  A
S567        C568   1.727       .  A
C568        C569   1.388       .  A
C569        H575   1.084       .  S
S570        C571   1.727       .  A
C571        C572   1.392       .  A
C572        H576   1.082       .  S
C577        C582   1.387       .  A
C577        C578   1.402       .  A
C577        S583   1.701       .  A
C578        C579   1.400       .  A
C578        H589   1.083       .  S
C579        C588   1.376       .  A
C579        C580   1.387       .  A
C580        C581   1.408       .  A
C580        S586   1.708       .  A
C581        C582   1.407       .  A
C581        H590   1.083       .  S
C582        C585   1.380       .  A
S583        C584   1.724       .  A
C584        C585   1.391       .  A
C585        H591   1.083       .  S
S586        C587   1.730       .  A
C587        C588   1.385       .  A
C588        H592   1.083       .  S
C593        C598   1.386       .  A
C593        C594   1.401       .  A
C593        S599   1.713       .  A
C594        C595   1.404       .  A
C594        H605   1.083       .  S
C595        C604   1.370       .  A
C595        C596   1.385       .  A
C596        C597   1.408       .  A
C596        S602   1.719       .  A
C597        C598   1.410       .  A
C597        H606   1.083       .  S
C598        C601   1.373       .  A
S599        C600   1.719       .  A
C600        C601   1.392       .  A
C601        H607   1.083       .  S
S602        C603   1.729       .  A
C603        C604   1.390       .  A
C604        H608   1.083       .  S
