geometry optimzed in LAMMPS
_audit_creation_date              2020-12-01 
_audit_creation_method            'lammps2cif' 
_symmetry_space_group_name_H-M    'P1' 
_symmetry_Int_Tables_number       1 
_symmetry_cell_setting            triclinic 
loop_ 
_symmetry_equiv_pos_as_xyz 
  x,y,z 
_cell_length_a                    50.64094753 
_cell_length_b                    32.68056301274214 
_cell_length_c                    27.757751521546332 
_cell_angle_alpha                 90.44918382619151 
_cell_angle_beta                  90.13603231727657 
_cell_angle_gamma                 89.58357176882433 
loop_ 
_atom_site_label 
_atom_site_type_symbol 
_atom_site_fract_x 
_atom_site_fract_y 
_atom_site_fract_z 
_atom_site_charge 
O1          O  0.52494983  0.02698243  0.32001295    -0.71400
O2          O  0.47855355  0.02798677  0.21195267    -0.71700
O3          O  0.47300083  0.01575696  0.30681089    -0.71500
O4          O  0.53079200  0.03779420  0.22344235    -0.71500
O5          O  0.53518005  0.97252727  0.20998265    -0.71500
O6          O  0.48153710  0.95071650  0.30080036    -0.71500
O7          O  0.48340999  0.96217107  0.20574125    -0.71400
O8          O  0.53371775  0.96272988  0.30686394    -0.71600
V9          V  0.50206965  0.02596235  0.26553167     1.35200
V10         V  0.50841595  0.96330996  0.25615230     1.35200
C11         C  0.53733095  0.99485278  0.33177455     0.77800
C12         C  0.47268935  0.99490796  0.19092973     0.77900
C13         C  0.46740833  0.97928533  0.31775224     0.77700
C14         C  0.54166657  0.00871036  0.20015799     0.77700
C15         C  0.35064882  0.93908108  0.02231588     0.86800
C16         C  0.33777342  0.97001228  0.50690647    -0.53400
C17         C  0.35285528  0.00290799  0.49554439     0.09800
C18         C  0.38274024  0.99232254  0.49292812     0.20700
C19         C  0.36974166  0.92301457  0.46989000    -0.54100
C20         C  0.38529728  0.95553939  0.45785064     0.09900
C21         C  0.37342933  0.94233508  0.05809314    -0.53700
C22         C  0.39005044  0.97381940  0.05036783     0.10400
H23         H  0.31639843  0.97097982  0.50718883     0.14900
H24         H  0.39551152  0.01850403  0.48383701     0.00700
H25         H  0.37022747  0.89462263  0.44946017     0.15200
H26         H  0.37603784  0.92118530  0.08761664     0.15000
C27         C  0.64960322  0.06942105  0.49955324     0.86800
C28         C  0.63374408  0.04953991  0.45768230    -0.53400
C29         C  0.62102095  0.01450392  0.46917375     0.09800
C30         C  0.62439195  0.99746010  0.01291668     0.20700
C31         C  0.63312053  0.06795037  0.03741461    -0.54100
C32         C  0.61928984  0.03347477  0.04877964     0.09900
C33         C  0.66855762  0.03478338  0.51424229    -0.53700
C34         C  0.65455775  0.99144261  0.01188504     0.10400
H35         H  0.63162725  0.06211800  0.42186780     0.14900
H36         H  0.61388405  0.96870549  0.02116050     0.00700
H37         H  0.63107016  0.09665786  0.05688179     0.15200
H38         H  0.68948786  0.02611655  0.99851964     0.15000
O39         O  0.47579871  0.48171374  0.28338979    -0.71400
O40         O  0.53165476  0.49673315  0.19427970    -0.71700
O41         O  0.52619292  0.50399124  0.29087411    -0.71500
O42         O  0.48106452  0.47403707  0.18698239    -0.71500
O43         O  0.46673116  0.53683775  0.18381021    -0.71500
O44         O  0.51788615  0.56817740  0.27712824    -0.71500
O45         O  0.51769661  0.55841972  0.17989862    -0.71400
O46         O  0.46667120  0.54655962  0.28013386    -0.71600
V47         V  0.50351372  0.49032068  0.23864329     1.35200
V48         V  0.49247742  0.55139965  0.23043002     1.35200
C49         C  0.46211600  0.51178836  0.29817634     0.77800
C50         C  0.53368758  0.52950010  0.17052645     0.77900
C51         C  0.52989554  0.54119745  0.30141357     0.77700
C52         C  0.46565180  0.50028097  0.16878277     0.77700
C53         C  0.34775131  0.44291988  0.47836161     0.86800
C54         C  0.36277653  0.45433873  0.43226934    -0.53400
C55         C  0.37774459  0.48859042  0.43603968     0.09800
C56         C  0.38104742  0.51015713  0.98792839     0.20700
C57         C  0.37327709  0.43978095  0.01217132    -0.54100
C58         C  0.38804391  0.47375473  0.02057092     0.09900
C59         C  0.33616411  0.48306921  0.98780207    -0.53700
C60         C  0.35110347  0.51720747  0.99586461     0.10400
H61         H  0.36326818  0.43502352  0.40021548     0.14900
H62         H  0.39344215  0.53741666  0.99503197     0.00700
H63         H  0.37593582  0.41168666  0.03232707     0.15200
H64         H  0.31501792  0.48341270  0.99229531     0.15000
C65         C  0.64795537  0.50649007  0.46153875     0.86800
C66         C  0.66418266  0.53376871  0.97494530    -0.53400
C67         C  0.65109333  0.56928798  0.98604255     0.09800
C68         C  0.62077059  0.56498865  0.98797439     0.20700
C69         C  0.62897581  0.49473985  0.01281136    -0.54100
C70         C  0.61581436  0.53004936  0.02429991     0.09900
C71         C  0.62975481  0.52168219  0.42057344    -0.53700
C72         C  0.61610882  0.55677542  0.43061280     0.10400
H73         H  0.68552551  0.53197887  0.97300171     0.14900
H74         H  0.61027739  0.59402993  0.99678760     0.00700
H75         H  0.62658613  0.46656278  0.03264773     0.15200
H76         H  0.62635183  0.50488972  0.38726089     0.15000
O77         O  0.97231387  0.46486348  0.04471645    -0.71400
O78         O  0.02548888  0.46133200  0.44749838    -0.71700
O79         O  0.02535596  0.44863958  0.04362901    -0.71500
O80         O  0.97407447  0.48054416  0.44478369    -0.71500
O81         O  0.98133663  0.54550153  0.45436510    -0.71500
O82         O  0.03386854  0.51354109  0.04960426    -0.71500
O83         O  0.03350191  0.52632129  0.45213989    -0.71400
O84         O  0.98136409  0.52929606  0.05427517    -0.71600
V85         V  0.99863920  0.46886969  0.49416620     1.35200
V86         V  0.00732811  0.53090104  0.50135871     1.35200
C87         C  0.96751204  0.49862094  0.06534555     0.77800
C88         C  0.03857832  0.49162536  0.43332253     0.77900
C89         C  0.03913160  0.47716530  0.06170086     0.77700
C90         C  0.96901188  0.51713816  0.43307082     0.77700
C91         C  0.15695998  0.42717166  0.25587479     0.86800
C92         C  0.13861640  0.43623541  0.29875042    -0.53400
C93         C  0.12331733  0.47066022  0.29465978     0.09800
C94         C  0.12691007  0.49252989  0.24642015     0.20700
C95         C  0.13730302  0.42499521  0.21291612    -0.54100
C96         C  0.12099068  0.45880098  0.20851159     0.09900
C97         C  0.17227454  0.46670376  0.24826471    -0.53700
C98         C  0.15690223  0.50078145  0.24300625     0.10400
H99         H  0.13615605  0.41515778  0.32831831     0.14900
H100        H  0.11459564  0.52047026  0.24253815     0.00700
H101        H  0.13526835  0.39824489  0.18988096     0.15200
H102        H  0.19368929  0.46755197  0.24627909     0.15000
C103        C  0.84917273  0.48454345  0.26037972     0.86800
C104        C  0.83508891  0.52446936  0.24864842    -0.53400
C105        C  0.85125272  0.55683036  0.24085658     0.09800
C106        C  0.88091145  0.54627942  0.24702778     0.20700
C107        C  0.86919948  0.47827759  0.21890746    -0.54100
C108        C  0.88603251  0.51074467  0.21176483     0.09900
C109        C  0.86723342  0.49368716  0.30325556    -0.53700
C110        C  0.88409941  0.52533663  0.29640632     0.10400
H111        H  0.81375506  0.52644938  0.24473562     0.14900
H112        H  0.89341489  0.57341313  0.24261045     0.00700
H113        H  0.87113479  0.44959908  0.19932659     0.15200
H114        H  0.86945805  0.47303746  0.33343104     0.15000
O115        O  0.02530649  0.00860496  0.05156652    -0.71400
O116        O  0.97348696  0.02775289  0.45976166    -0.71700
O117        O  0.97311262  0.02380926  0.05884175    -0.71500
O118        O  0.02538553  0.01333584  0.45159431    -0.71500
O119        O  0.02244456  0.94800887  0.46357971    -0.71500
O120        O  0.96258270  0.95951385  0.05738454    -0.71500
O121        O  0.96968455  0.96172282  0.45903612    -0.71400
O122        O  0.01560782  0.94457851  0.06100821    -0.71600
V123        V  0.00161124  0.02216515  0.50412316     1.35200
V124        V  0.99522005  0.95960397  0.50978312     1.35200
C125        C  0.02968317  0.97516353  0.07271063     0.77800
C126        C  0.96212956  0.99631932  0.44349458     0.77900
C127        C  0.95879664  0.99518314  0.07430982     0.77700
C128        C  0.03222828  0.97722888  0.43987405     0.77700
C129        C  0.15037865  0.00692930  0.26655196     0.86800
C130        C  0.16455907  0.96633502  0.25596246    -0.53400
C131        C  0.14831025  0.93399784  0.24684663     0.09800
C132        C  0.11880243  0.94503678  0.24993861     0.20700
C133        C  0.13115792  0.01314688  0.22349189    -0.54100
C134        C  0.11481903  0.98040868  0.21436435     0.09900
C135        C  0.13148140  0.99730070  0.30809196    -0.53700
C136        C  0.11501921  0.96540060  0.29940945     0.10400
H137        H  0.18594294  0.96340675  0.25577930     0.14900
H138        H  0.10560771  0.91853017  0.24412262     0.00700
H139        H  0.12956735  0.04174745  0.20425614     0.15200
H140        H  0.12833045  0.01697514  0.33917208     0.15000
C141        C  0.84537117  0.06008987  0.26678329     0.86800
C142        C  0.85926453  0.04668917  0.31312188    -0.53400
C143        C  0.87516062  0.01290826  0.30848710     0.09800
C144        C  0.87397312  0.99327300  0.25792845     0.20700
C145        C  0.86708333  0.06267914  0.22842975    -0.54100
C146        C  0.88167256  0.02769676  0.22340552     0.09900
C147        C  0.82944484  0.02145111  0.25276337    -0.53700
C148        C  0.84436402  0.98646380  0.24833433     0.10400
H149        H  0.85782410  0.06355111  0.34675529     0.14900
H150        H  0.88635826  0.96530231  0.25379607     0.00700
H151        H  0.86996668  0.08929114  0.20588696     0.15200
H152        H  0.80831334  0.02123948  0.24688836     0.15000
N153        N  0.73605233  0.34061271  0.34608243    -0.36300
N154        N  0.70814568  0.28159782  0.40421523    -0.56800
N155        N  0.74264706  0.21757218  0.36508836    -0.36300
N156        N  0.76888725  0.27726990  0.30236448    -0.56800
C157        C  0.71512558  0.36343006  0.36082041     0.27300
C158        C  0.74855247  0.36193583  0.31142804     0.27300
C159        C  0.72581627  0.19451766  0.39117416     0.27300
C160        C  0.75780648  0.19177778  0.33830705     0.27300
C161        C  0.69670834  0.31592751  0.42189420     0.35900
C162        C  0.70014348  0.25057379  0.43220565     0.35900
C163        C  0.78266786  0.31059672  0.28834564     0.35900
C164        C  0.78456095  0.24416097  0.29418160     0.35900
C165        C  0.71424929  0.39953446  0.33483236    -0.21500
C166        C  0.73538233  0.39861087  0.30380407    -0.21500
C167        C  0.73099303  0.15347799  0.38210147    -0.21500
C168        C  0.75127352  0.15173503  0.34944953    -0.21500
C169        C  0.68138790  0.30680741  0.46166892    -0.22600
C170        C  0.68343570  0.26522097  0.46803367    -0.22600
C171        C  0.80697512  0.29849367  0.27034846    -0.22600
C172        C  0.80790236  0.25654161  0.27280360    -0.22600
C173        C  0.69845986  0.35473212  0.40033633    -0.18000
C174        C  0.77343535  0.35169167  0.29138073    -0.18000
C175        C  0.77845071  0.20299814  0.30634446    -0.17900
C176        C  0.70615647  0.20892998  0.42369879    -0.17900
H177        H  0.70032954  0.42460605  0.33892030     0.15000
H178        H  0.74095435  0.42272085  0.27940790     0.15000
H179        H  0.72137831  0.12729051  0.39776800     0.15000
H180        H  0.76026670  0.12380747  0.33605603     0.15000
H181        H  0.66943479  0.32769976  0.48297504     0.13200
H182        H  0.67349192  0.24770276  0.49541583     0.13200
H183        H  0.82259908  0.31770095  0.25707678     0.13200
H184        H  0.82437272  0.23764164  0.26134991     0.13200
H185        H  0.74395078  0.31551471  0.36401327     0.26500
H186        H  0.74490709  0.24899433  0.36773834     0.26500
N187        N  0.75302440  0.70974525  0.11702864    -0.36300
N188        N  0.78776324  0.77016878  0.15890366    -0.56800
N189        N  0.75179973  0.83456823  0.12437520    -0.36300
N190        N  0.71883655  0.77432429  0.07776940    -0.56800
C191        C  0.77305532  0.68507249  0.13213033     0.27300
C192        C  0.73745577  0.68713487  0.08742249     0.27300
C193        C  0.77234970  0.85745512  0.13985283     0.27300
C194        C  0.73551969  0.85976473  0.09929869     0.27300
C195        C  0.79862664  0.73658820  0.17934857     0.35900
C196        C  0.79874376  0.80281123  0.18107694     0.35900
C197        C  0.70466152  0.74143530  0.06367785     0.35900
C198        C  0.70362935  0.80770756  0.06903386     0.35900
C199        C  0.77015498  0.64642584  0.11188883    -0.21500
C200        C  0.74775614  0.64771344  0.08369158    -0.21500
C201        C  0.76895138  0.89762335  0.12488863    -0.21500
C202        C  0.74570936  0.89910874  0.09947645    -0.21500
C203        C  0.81712355  0.74800121  0.21369367    -0.22600
C204        C  0.81718311  0.78997703  0.21481809    -0.22600
C205        C  0.68068931  0.75414663  0.04442060    -0.22600
C206        C  0.68004415  0.79607672  0.04784514    -0.22600
C207        C  0.79284252  0.69577124  0.16620745    -0.18000
C208        C  0.71317390  0.70013530  0.06658386    -0.18000
C209        C  0.71116584  0.84865782  0.07788598    -0.17900
C210        C  0.79297467  0.84407484  0.17051639    -0.17900
H211        H  0.78260022  0.61979437  0.11753277     0.15000
H212        H  0.73967482  0.62216056  0.06358920     0.15000
H213        H  0.78164904  0.92346631  0.13227438     0.15000
H214        H  0.73720997  0.92630171  0.08345910     0.15000
H215        H  0.82928665  0.72816675  0.23570140     0.13200
H216        H  0.82936556  0.80889474  0.23792472     0.13200
H217        H  0.66520031  0.73518401  0.02954607     0.13200
H218        H  0.66403550  0.81574603  0.03608372     0.13200
H219        H  0.74851845  0.73719681  0.13036333     0.26500
H220        H  0.74776696  0.80627432  0.13489809     0.26500
N221        N  0.26374115  0.15452001  0.35892517    -0.36300
N222        N  0.29551018  0.21826498  0.40299586    -0.56800
N223        N  0.26432534  0.27688287  0.35108042    -0.36300
N224        N  0.23319039  0.21349482  0.30365076    -0.56800
C225        C  0.28427376  0.13236658  0.37653652     0.27300
C226        C  0.25010761  0.12994094  0.32838828     0.27300
C227        C  0.28425435  0.30048889  0.36780614     0.27300
C228        C  0.25239221  0.29757051  0.31497954     0.27300
C229        C  0.30370643  0.18610446  0.42929837     0.35900
C230        C  0.30258320  0.25225527  0.42751276     0.35900
C231        C  0.21711801  0.18076524  0.30037277     0.35900
C232        C  0.21808149  0.24680614  0.29453239     0.35900
C233        C  0.28365847  0.09325820  0.35674086    -0.21500
C234        C  0.26202587  0.09169175  0.32658244    -0.21500
C235        C  0.28520657  0.33639300  0.34160265    -0.21500
C236        C  0.26512607  0.33450013  0.30815220    -0.21500
C237        C  0.31614581  0.19962956  0.47098457    -0.22600
C238        C  0.31518151  0.24177163  0.47008096    -0.22600
C239        C  0.19174751  0.19318794  0.28824333    -0.22600
C240        C  0.19233167  0.23519666  0.28474724    -0.22600
C241        C  0.30167032  0.14505835  0.41384100    -0.18000
C242        C  0.22551378  0.13987869  0.30692315    -0.18000
C243        C  0.22764095  0.28731217  0.29465491    -0.17900
C244        C  0.29973984  0.29212130  0.40918407    -0.17900
H245        H  0.29689569  0.06799253  0.36447130     0.15000
H246        H  0.25539391  0.06511857  0.30657238     0.15000
H247        H  0.29845585  0.36186165  0.34707140     0.15000
H248        H  0.25965189  0.35841726  0.28319912     0.15000
H249        H  0.32520317  0.18112601  0.49874317     0.13200
H250        H  0.32343672  0.26226478  0.49688002     0.13200
H251        H  0.17460754  0.17405385  0.28298139     0.13200
H252        H  0.17571231  0.25489870  0.27631103     0.13200
H253        H  0.25713843  0.18261833  0.37210528     0.26500
H254        H  0.25657730  0.25157758  0.36842552     0.26500
N255        N  0.25808432  0.65821961  0.14643431    -0.36300
N256        N  0.22011284  0.71885510  0.18480953    -0.56800
N257        N  0.25102468  0.78392966  0.14237433    -0.36300
N258        N  0.28755893  0.72374547  0.09946827    -0.56800
C259        C  0.23903429  0.63279858  0.16245964     0.27300
C260        C  0.27554686  0.63549766  0.12046042     0.27300
C261        C  0.22923952  0.80527987  0.15670996     0.27300
C262        C  0.26426508  0.80748652  0.11054813     0.27300
C263        C  0.20899137  0.68456936  0.20240027     0.35900
C264        C  0.20637626  0.75099077  0.20338554     0.35900
C265        C  0.30425916  0.69207808  0.09020102     0.35900
C266        C  0.30032899  0.75842575  0.08716854     0.35900
C267        C  0.24510105  0.59307813  0.14801878    -0.21500
C268        C  0.26798483  0.59477064  0.12160538    -0.21500
C269        C  0.22889361  0.84293267  0.13408537    -0.21500
C270        C  0.25064494  0.84410356  0.10470054    -0.21500
C271        C  0.18795567  0.69504990  0.23206451    -0.22600
C272        C  0.18641078  0.73703827  0.23290917    -0.22600
C273        C  0.32761519  0.70665879  0.07119397    -0.22600
C274        C  0.32533783  0.74861873  0.07017874    -0.22600
C275        C  0.21639375  0.64383982  0.19013511    -0.18000
C276        C  0.29826409  0.65003683  0.09594873    -0.18000
C277        C  0.28924716  0.79855443  0.08910919    -0.17900
C278        C  0.20982607  0.79243741  0.19033725    -0.17900
H279        H  0.23413914  0.56555921  0.15550675     0.15000
H280        H  0.27785384  0.56878544  0.10504858     0.15000
H281        H  0.21439508  0.86718671  0.13797633     0.15000
H282        H  0.25593617  0.86943111  0.08186835     0.15000
H283        H  0.17478293  0.67457252  0.25061123     0.13200
H284        H  0.17167905  0.75514246  0.25177297     0.13200
H285        H  0.34462933  0.68895873  0.05962851     0.13200
H286        H  0.34038293  0.76941800  0.05796099     0.13200
H287        H  0.25988770  0.68937115  0.15500510     0.26500
H288        H  0.25811763  0.75679373  0.15774471     0.26500
C289        C  0.84470801  0.92475755  0.19431293    -0.11900
C290        C  0.83306501  0.94644381  0.23301617     0.05100
C291        C  0.80977888  0.93078671  0.25396305    -0.07200
C292        C  0.79806587  0.89580273  0.23475412    -0.08000
C293        C  0.80873265  0.87618036  0.19452447    -0.02500
C294        C  0.83237105  0.89013846  0.17447392     0.04300
N295        N  0.84266634  0.87103157  0.13191697     0.66800
H296        H  0.86265582  0.93570377  0.17802113     0.15700
H297        H  0.77983294  0.88476770  0.25020505     0.15400
N298        N  0.79750029  0.94963477  0.29475893     0.74500
O299        O  0.83303273  0.88083742  0.09161480    -0.38900
O300        O  0.85480064  0.83733781  0.13558302    -0.38900
O301        O  0.77631927  0.96943088  0.28822195    -0.39600
O302        O  0.80173760  0.93428701  0.33564718    -0.39600
C303        C  0.82174337  0.16695727  0.31073065    -0.11900
C304        C  0.79667557  0.16956942  0.28979472     0.05100
C305        C  0.78915456  0.13919650  0.25608958    -0.07200
C306        C  0.80554634  0.10520562  0.24791014    -0.08000
C307        C  0.82979150  0.10046172  0.27212340    -0.02500
C308        C  0.83887084  0.13431765  0.30024949     0.04300
N309        N  0.86556028  0.13771558  0.31672208     0.66800
H310        H  0.82828620  0.19096828  0.33505167     0.15700
H311        H  0.79906739  0.08273306  0.22178004     0.15400
N312        N  0.76494932  0.14193133  0.22979042     0.74500
O313        O  0.88151516  0.15731959  0.29092875    -0.38900
O314        O  0.87001228  0.13590939  0.36142426    -0.38900
O315        O  0.76583570  0.15371187  0.18664887    -0.39600
O316        O  0.74583441  0.12004232  0.24267345    -0.39600
C317        C  0.17931625  0.87793267  0.26670063    -0.11900
C318        C  0.15936415  0.89255770  0.23642943     0.05100
C319        C  0.15299846  0.86988075  0.19457251    -0.07200
C320        C  0.16886805  0.83610945  0.18091988    -0.08000
C321        C  0.19064531  0.82394945  0.20926874    -0.02500
C322        C  0.19475398  0.84400906  0.25391114     0.04300
N323        N  0.21494653  0.83144086  0.28656739     0.66800
H324        H  0.18369031  0.89407713  0.30001875     0.15700
H325        H  0.16487311  0.82035256  0.14722274     0.15400
N326        N  0.13138011  0.88185060  0.16460679     0.74500
O327        O  0.23573052  0.85242380  0.28892491    -0.38900
O328        O  0.20820267  0.81124188  0.32304264    -0.38900
O329        O  0.13395540  0.91132373  0.13602882    -0.39600
O330        O  0.10869057  0.86771845  0.17252096    -0.39600
C331        C  0.17490561  0.05631268  0.32420550    -0.11900
C332        C  0.17014705  0.04193476  0.27664035     0.05100
C333        C  0.18551274  0.05907483  0.23918939    -0.07200
C334        C  0.20324351  0.09113147  0.24911504    -0.08000
C335        C  0.20674320  0.10599693  0.29617755    -0.02500
C336        C  0.19256990  0.08817034  0.33380162     0.04300
N337        N  0.19593347  0.10263781  0.38218969     0.66800
H338        H  0.16560545  0.04266598  0.35497731     0.15700
H339        H  0.21450561  0.10425921  0.21999690     0.15400
N340        N  0.18290462  0.04501483  0.19053942     0.74500
O341        O  0.18502845  0.13583373  0.39490380    -0.38900
O342        O  0.21442711  0.08817204  0.40756252    -0.38900
O343        O  0.17166719  0.06744269  0.15980403    -0.39600
O344        O  0.19182529  0.01037906  0.17806268    -0.39600
C345        C  0.06901121  0.96196868  0.18955372    -0.11900
C346        C  0.09333799  0.97933821  0.17724623     0.05100
C347        C  0.09658201  0.99416608  0.13005733    -0.07200
C348        C  0.07584840  0.99088772  0.09649144    -0.08000
C349        C  0.05153140  0.97315580  0.10872821    -0.02500
C350        C  0.04821853  0.95887239  0.15627836     0.04300
N351        N  0.02356132  0.94363652  0.17298342     0.66800
H352        H  0.06568173  0.95157150  0.22596454     0.15700
H353        H  0.07869391  0.00275044  0.06052461     0.15400
N354        N  0.12043150  0.01378173  0.11596697     0.74500
O355        O  0.02132807  0.90553096  0.17847276    -0.38900
O356        O  0.00908263  0.96721493  0.19785297    -0.38900
O357        O  0.14193488  0.99404575  0.11523644    -0.39600
O358        O  0.12065279  0.05217950  0.11169861    -0.39600
C359        C  0.07056950  0.93832907  0.40300543    -0.11900
C360        C  0.05129958  0.96976458  0.39963884     0.05100
C361        C  0.05147155  0.99506591  0.35833871    -0.07200
C362        C  0.07121943  0.99042092  0.32373290    -0.08000
C363        C  0.09114702  0.96120125  0.32899610    -0.02500
C364        C  0.09057160  0.93426316  0.36790448     0.04300
N365        N  0.11128020  0.90464173  0.37307228     0.66800
H366        H  0.07085434  0.91834091  0.43394952     0.15700
H367        H  0.07179658  0.01137034  0.29363977     0.15400
N368        N  0.03200968  0.02613480  0.35061250     0.74500
O369        O  0.13277172  0.91578278  0.39199491    -0.38900
O370        O  0.11143338  0.87391404  0.34523641    -0.38900
O371        O  0.03847571  0.06293001  0.35759812    -0.39600
O372        O  0.01341594  0.01858442  0.32160156    -0.39600
C373        C  0.91089231  0.04107109  0.35822097    -0.11900
C374        C  0.89700168  0.00628957  0.34342800     0.05100
C375        C  0.90499569  0.96774654  0.36109672    -0.07200
C376        C  0.92636307  0.96514247  0.39334416    -0.08000
C377        C  0.94021109  0.00024968  0.40813699    -0.02500
C378        C  0.93214566  0.03865858  0.38972483     0.04300
N379        N  0.94550410  0.07587113  0.40097474     0.66800
H380        H  0.90577205  0.07085030  0.34387561     0.15700
H381        H  0.93193291  0.93539678  0.40720332     0.15400
N382        N  0.89122554  0.93117874  0.34873449     0.74500
O383        O  0.96178870  0.08939958  0.37077522    -0.38900
O384        O  0.93464510  0.10077726  0.42985741    -0.38900
O385        O  0.90191229  0.90634843  0.31956934    -0.39600
O386        O  0.87425656  0.91792114  0.37782837    -0.39600
C387        C  0.94626469  0.02378528  0.15462203    -0.11900
C388        C  0.93858717  0.00357926  0.11189418     0.05100
C389        C  0.91168156  0.99296746  0.10590019    -0.07200
C390        C  0.89335636  0.00279800  0.14190916    -0.08000
C391        C  0.90126097  0.02171883  0.18470392    -0.02500
C392        C  0.92781083  0.03239590  0.19113041     0.04300
N393        N  0.93631456  0.05001127  0.23566991     0.66800
H394        H  0.96675067  0.03204068  0.16008240     0.15700
H395        H  0.87275233  0.99530844  0.13647994     0.15400
N396        N  0.90216868  0.97324122  0.06328763     0.74500
O397        O  0.94351201  0.02646656  0.26907625    -0.38900
O398        O  0.92981798  0.08642521  0.24578813    -0.38900
O399        O  0.89628518  0.93584859  0.06562246    -0.39600
O400        O  0.89090416  0.99495468  0.03183482    -0.39600
C401        C  0.82131097  0.42544423  0.22969907    -0.11900
C402        C  0.82930953  0.45014659  0.26866425     0.05100
C403        C  0.81592431  0.44546322  0.31315452    -0.07200
C404        C  0.79848528  0.41279232  0.31937257    -0.08000
C405        C  0.79186074  0.38638796  0.28099944    -0.02500
C406        C  0.80262203  0.39442070  0.23507219     0.04300
N407        N  0.79370873  0.37380266  0.19259359     0.66800
H408        H  0.82868694  0.43114696  0.19386383     0.15700
H409        H  0.78943410  0.40863718  0.35433687     0.15400
N410        N  0.81892660  0.47443824  0.35174760     0.74500
O411        O  0.80905930  0.34824951  0.17269954    -0.38900
O412        O  0.77678566  0.39179806  0.16670385    -0.38900
O413        O  0.81081363  0.51079220  0.34690210    -0.39600
O414        O  0.83064776  0.46420491  0.39002423    -0.39600
C415        C  0.81708909  0.61105303  0.24908145    -0.11900
C416        C  0.83971239  0.59672768  0.22494942     0.05100
C417        C  0.84777055  0.61726818  0.18274727    -0.07200
C418        C  0.83249192  0.64987040  0.16479340    -0.08000
C419        C  0.80919497  0.66246220  0.18783753    -0.02500
C420        C  0.80184428  0.64329978  0.23101358     0.04300
N421        N  0.77878252  0.65566024  0.25690786     0.66800
H422        H  0.81063788  0.59609701  0.28169062     0.15700
H423        H  0.83849802  0.66481533  0.13190539     0.15400
N424        N  0.87046222  0.60452146  0.15603142     0.74500
O425        O  0.78150637  0.67856847  0.29335448    -0.38900
O426        O  0.75834544  0.63395676  0.25348846    -0.38900
O427        O  0.86710157  0.58446686  0.11749401    -0.39600
O428        O  0.89153893  0.62440919  0.16139267    -0.39600
C429        C  0.18767623  0.55765212  0.26456610    -0.11900
C430        C  0.16893449  0.54109250  0.23254784     0.05100
C431        C  0.16473051  0.56004978  0.18777485    -0.07200
C432        C  0.17960407  0.59439567  0.17507416    -0.08000
C433        C  0.19889809  0.61008751  0.20643387    -0.02500
C434        C  0.20261479  0.59191561  0.25174683     0.04300
N435        N  0.22258241  0.60679474  0.28369504     0.66800
H436        H  0.19137447  0.54297588  0.29882613     0.15700
H437        H  0.17692349  0.60783180  0.13982156     0.15400
N438        N  0.14727597  0.54228147  0.15311935     0.74500
O439        O  0.21769152  0.63757457  0.30999711    -0.38900
O440        O  0.24627827  0.59609424  0.27686202    -0.38900
O441        O  0.12319307  0.55241935  0.15311174    -0.39600
O442        O  0.15469531  0.51119880  0.12937221    -0.39600
C443        C  0.18320557  0.36299802  0.22655226    -0.11900
C444        C  0.17564577  0.39015634  0.26441861     0.05100
C445        C  0.18763994  0.38378998  0.31030708    -0.07200
C446        C  0.20285801  0.34902294  0.31891860    -0.08000
C447        C  0.20954915  0.32181753  0.28212980    -0.02500
C448        C  0.20061740  0.32964493  0.23506294     0.04300
N449        N  0.21091087  0.30600056  0.19568807     0.66800
H450        H  0.17663120  0.36850057  0.19006007     0.15700
H451        H  0.21078512  0.34430815  0.35480703     0.15400
N452        N  0.18613931  0.41311603  0.34863268     0.74500
O453        O  0.19968285  0.27310371  0.18375613    -0.38900
O454        O  0.23448143  0.31163227  0.18273857    -0.38900
O455        O  0.17319769  0.40392535  0.38577395    -0.39600
O456        O  0.20481084  0.43824037  0.35303631    -0.39600
C457        C  0.10375534  0.44743985  0.12462197    -0.11900
C458        C  0.09907844  0.46164880  0.17180860     0.05100
C459        C  0.07376597  0.47861730  0.18218892    -0.07200
C460        C  0.05486839  0.48291436  0.14552036    -0.08000
C461        C  0.05978180  0.46931802  0.09857319    -0.02500
C462        C  0.08446605  0.45082989  0.08826301     0.04300
N463        N  0.09080229  0.43635442  0.04101249     0.66800
H464        H  0.12280992  0.43429771  0.11544836     0.15700
H465        H  0.03580502  0.49638654  0.15417636     0.15400
N466        N  0.06566877  0.48868107  0.23004943     0.74500
O467        O  0.10464544  0.45864403  0.01424585    -0.38900
O468        O  0.09044036  0.39830105  0.03300806    -0.38900
O469        O  0.06320605  0.52598059  0.24138512    -0.39600
O470        O  0.05188806  0.46290085  0.25217122    -0.39600
C471        C  0.07542596  0.52009971  0.38457814    -0.11900
C472        C  0.05947009  0.48652719  0.39607415     0.05100
C473        C  0.06421882  0.44881160  0.37192269    -0.07200
C474        C  0.08480089  0.44531990  0.33894489    -0.08000
C475        C  0.10108681  0.47841658  0.32837504    -0.02500
C476        C  0.09595662  0.51652065  0.35086894     0.04300
N477        N  0.11178606  0.55155281  0.34170855     0.66800
H478        H  0.07222429  0.54938222  0.40226812     0.15700
H479        H  0.08789694  0.41613858  0.32087766     0.15400
N480        N  0.04847172  0.41340394  0.37958851     0.74500
O481        O  0.10277187  0.57873640  0.31400074    -0.38900
O482        O  0.12914057  0.56140703  0.37227552    -0.38900
O483        O  0.03137239  0.40420211  0.34825206    -0.39600
O484        O  0.05762971  0.38543770  0.40604718    -0.39600
C485        C  0.91182430  0.55966908  0.35793780    -0.11900
C486        C  0.90852771  0.52722325  0.32545017     0.05100
C487        C  0.92696614  0.49446598  0.32546209    -0.07200
C488        C  0.94738178  0.49412315  0.35899261    -0.08000
C489        C  0.94961645  0.52478100  0.39418557    -0.02500
C490        C  0.93203254  0.55869746  0.39265382     0.04300
N491        N  0.93271383  0.59063745  0.42796466     0.66800
H492        H  0.89762790  0.58465743  0.35837358     0.15700
H493        H  0.96099720  0.46834745  0.35872803     0.15400
N494        N  0.92487518  0.46023842  0.29325124     0.74500
O495        O  0.91746542  0.58831776  0.46372007    -0.38900
O496        O  0.94074415  0.62541570  0.41540080    -0.38900
O497        O  0.94116824  0.45709784  0.25906858    -0.39600
O498        O  0.91425807  0.42805594  0.30854893    -0.39600
C499        C  0.90283623  0.48682027  0.13274900    -0.11900
C500        C  0.90746275  0.50983542  0.17475386     0.05100
C501        C  0.93223637  0.52999184  0.17953603    -0.07200
C502        C  0.95108016  0.52617114  0.14289244    -0.08000
C503        C  0.94649143  0.50208309  0.10197911    -0.02500
C504        C  0.92200556  0.48208590  0.09718167     0.04300
N505        N  0.91554129  0.45795641  0.05578724     0.66800
H506        H  0.88392897  0.47234607  0.12677041     0.15700
H507        H  0.96987378  0.54149421  0.14714639     0.15400
N508        N  0.93957519  0.55344743  0.22110361     0.74500
O509        O  0.91684960  0.41951070  0.05919919    -0.38900
O510        O  0.90026700  0.47323957  0.02465121    -0.38900
O511        O  0.95678174  0.53862271  0.24904424    -0.39600
O512        O  0.93772695  0.59190304  0.21868463    -0.39600
C513        C  0.70019097  0.65633515  0.99695829    -0.11900
C514        C  0.69590859  0.66838820  0.04482267     0.05100
C515        C  0.67538829  0.65016212  0.07116764    -0.07200
C516        C  0.66014233  0.61952473  0.04991344    -0.08000
C517        C  0.66515779  0.60609400  0.00290315    -0.02500
C518        C  0.68509485  0.62525858  0.97580134     0.04300
N519        N  0.69527607  0.62136010  0.42631390     0.66800
H520        H  0.71557005  0.67080242  0.97616665     0.15700
H521        H  0.64501619  0.60485170  0.07115345     0.15400
N522        N  0.67011220  0.66146077  0.11995233     0.74500
O523        O  0.68758563  0.64322082  0.39165978    -0.38900
O524        O  0.71539364  0.59884405  0.42060495    -0.38900
O525        O  0.65026452  0.68384218  0.12870795    -0.39600
O526        O  0.67922828  0.63916347  0.15305602    -0.39600
C527        C  0.69719163  0.41538273  0.45376553    -0.11900
C528        C  0.68372499  0.38956136  0.42195396     0.05100
C529        C  0.65757406  0.39909736  0.40905602    -0.07200
C530        C  0.64630183  0.43585372  0.42470950    -0.08000
C531        C  0.66091068  0.46486633  0.45127338    -0.02500
C532        C  0.68590055  0.45226578  0.46967048     0.04300
N533        N  0.69941593  0.47421968  0.50685124     0.66800
H534        H  0.71679189  0.40689414  0.46612309     0.15700
H535        H  0.62592925  0.44175370  0.41500677     0.15400
N536        N  0.64226168  0.37260695  0.37913539     0.74500
O537        O  0.69555616  0.46376848  0.54992812    -0.38900
O538        O  0.72086133  0.49154095  0.49662622    -0.38900
O539        O  0.62448056  0.35152198  0.39852627    -0.39600
O540        O  0.64030196  0.38069599  0.33489170    -0.39600
C541        C  0.29618478  0.35648100  0.45647697    -0.11900
C542        C  0.31244471  0.32717023  0.43447922     0.05100
C543        C  0.33991706  0.33311781  0.43487853    -0.07200
C544        C  0.35028940  0.36924988  0.45403036    -0.08000
C545        C  0.33396785  0.40131145  0.47119735    -0.02500
C546        C  0.31310754  0.39407325  0.98291936     0.04300
N547        N  0.30266242  0.41397431  0.02478489     0.66800
H548        H  0.28105329  0.35119354  0.98096918     0.15700
H549        H  0.37148045  0.37350793  0.45219001     0.15400
N550        N  0.35765627  0.30407574  0.41367202     0.74500
O551        O  0.28169958  0.43478857  0.02074811    -0.38900
O552        O  0.30826513  0.39902182  0.06537191    -0.38900
O553        O  0.36645413  0.31098797  0.37205052    -0.39600
O554        O  0.37073050  0.28092380  0.44114440    -0.39600
C555        C  0.35051001  0.57038556  0.05973967    -0.11900
C556        C  0.33962596  0.55523766  0.01680320     0.05100
C557        C  0.31646552  0.57384727  0.99835619    -0.07200
C558        C  0.30434794  0.60591244  0.02385464    -0.08000
C559        C  0.31430522  0.61936808  0.06830254    -0.02500
C560        C  0.33787161  0.60159042  0.08604965     0.04300
N561        N  0.34864794  0.61313358  0.13164299     0.66800
H562        H  0.36813548  0.55630343  0.07455477     0.15700
H563        H  0.29191127  0.63341758  0.48566000     0.15400
N564        N  0.31403154  0.57482712  0.43423749     0.74500
O565        O  0.34347006  0.59138174  0.16772650    -0.38900
O566        O  0.36923886  0.63463694  0.13243531    -0.38900
O567        O  0.29436389  0.55416818  0.42073456    -0.39600
O568        O  0.32338237  0.60079772  0.40569324    -0.39600
C569        C  0.42241881  0.53792262  0.34342458    -0.11900
C570        C  0.44105730  0.50630614  0.33503250     0.05100
C571        C  0.43836983  0.46935879  0.36100893    -0.07200
C572        C  0.41757300  0.46467173  0.39317373    -0.08000
C573        C  0.39937224  0.49606683  0.40160577    -0.02500
C574        C  0.40167354  0.53282737  0.37642921     0.04300
N575        N  0.38119603  0.56279599  0.37978121     0.66800
H576        H  0.42340378  0.56610709  0.32324120     0.15700
H577        H  0.41545959  0.43574939  0.41146834     0.15400
N578        N  0.45633074  0.43579653  0.35573195     0.74500
O579        O  0.38160326  0.58856542  0.41385376    -0.38900
O580        O  0.35977651  0.55602996  0.35794287    -0.38900
O581        O  0.47304571  0.42976980  0.38876475    -0.39600
O582        O  0.44937620  0.40582990  0.32984488    -0.39600
C583        C  0.45398571  0.47715910  0.08570253    -0.11900
C584        C  0.44600880  0.48871541  0.13219998     0.05100
C585        C  0.41895843  0.49202208  0.14289650    -0.07200
C586        C  0.40013390  0.48558935  0.10657171    -0.08000
C587        C  0.40808230  0.47599724  0.05941327    -0.02500
C588        C  0.43513165  0.47080611  0.04931032     0.04300
N589        N  0.44364056  0.46090279  0.00166582     0.66800
H590        H  0.47481938  0.47447715  0.07729020     0.15700
H591        H  0.37933128  0.48895663  0.11487980     0.15400
N592        N  0.41058990  0.50177124  0.19080932     0.74500
O593        O  0.44971956  0.48943045  0.97354222    -0.38900
O594        O  0.42116770  0.38884492  0.55036093    -0.38900
O595        O  0.40889968  0.53881602  0.20365705    -0.39600
O596        O  0.41180467  0.47446009  0.22265044    -0.39600
C597        C  0.56875958  0.58047385  0.32869396    -0.11900
C598        C  0.54877293  0.55267270  0.33962355     0.05100
C599        C  0.54891067  0.53359612  0.38507012    -0.07200
C600        C  0.56976330  0.54044244  0.41701560    -0.08000
C601        C  0.59126359  0.56454244  0.40396392    -0.02500
C602        C  0.59028756  0.58594352  0.35990335     0.04300
N603        N  0.61148236  0.61124380  0.34457377     0.66800
H604        H  0.56877110  0.59556148  0.29404260     0.15700
H605        H  0.57033654  0.52359780  0.45051215     0.15400
N606        N  0.52871234  0.50585840  0.39894893     0.74500
O607        O  0.62820596  0.59640100  0.31556189    -0.38900
O608        O  0.60823499  0.64956118  0.34601845    -0.38900
O609        O  0.53368416  0.46797623  0.39745050    -0.39600
O610        O  0.51073450  0.51871833  0.42671406    -0.39600
C611        C  0.57882160  0.51279245  0.14276474    -0.11900
C612        C  0.55490564  0.53321008  0.13392996     0.05100
C613        C  0.55203182  0.55489853  0.09029414    -0.07200
C614        C  0.57241567  0.55408949  0.05615456    -0.08000
C615        C  0.59609656  0.53267876  0.06435748    -0.02500
C616        C  0.59940420  0.51266227  0.10919345     0.04300
N617        N  0.62377524  0.49374365  0.12292263     0.66800
H618        H  0.58178093  0.49702229  0.17660090     0.15700
H619        H  0.56916754  0.56940315  0.02218283     0.15400
N620        N  0.52829287  0.57641580  0.07850464     0.74500
O621        O  0.63968004  0.51426729  0.14830298    -0.38900
O622        O  0.62480954  0.45520309  0.12517739    -0.38900
O623        O  0.52840846  0.61500153  0.08059800    -0.39600
O624        O  0.51172740  0.55906315  0.05130234    -0.39600
C625        C  0.65186084  0.13326685  0.44846876    -0.11900
C626        C  0.66264686  0.11016654  0.48643856     0.05100
C627        C  0.68532492  0.12620005  0.51019338    -0.07200
C628        C  0.69883348  0.15935188  0.49017127    -0.08000
C629        C  0.68973194  0.17790449  0.44799671    -0.02500
C630        C  0.66552296  0.16554964  0.42810339     0.04300
N631        N  0.65492284  0.18410572  0.38580225     0.66800
H632        H  0.63276526  0.12623779  0.43326779     0.15700
H633        H  0.71672393  0.17033559  0.50725939     0.15400
N634        N  0.70179668  0.09505264  0.03929769     0.74500
O635        O  0.65875160  0.16663359  0.34569030    -0.38900
O636        O  0.63553634  0.20830481  0.39017507    -0.38900
O637        O  0.72248240  0.07388040  0.03320992    -0.38000
O638        O  0.69753558  0.11039187  0.08044597    -0.39600
C639        C  0.70043179  0.89859131  0.01398906    -0.11900
C640        C  0.69417424  0.88218756  0.05891212     0.05100
C641        C  0.67362459  0.90015757  0.08624339    -0.07200
C642        C  0.66037785  0.93471426  0.06890979    -0.08000
C643        C  0.66758559  0.95248008  0.02522191    -0.02500
C644        C  0.69019068  0.94365673  0.50853091     0.04300
N645        N  0.69740928  0.96134467  0.46362352     0.66800
H646        H  0.71852032  0.89491251  0.50032860     0.15700
H647        H  0.64507183  0.94879154  0.09085103     0.15400
N648        N  0.66641255  0.88478457  0.13229894     0.74500
O649        O  0.71804177  0.98269682  0.46190684    -0.38900
O650        O  0.68895274  0.94508790  0.42526191    -0.38900
O651        O  0.67421268  0.90367043  0.16945715    -0.39600
O652        O  0.64613764  0.86273471  0.13520264    -0.39600
C653        C  0.30967821  0.86747992  0.10107156    -0.11900
C654        C  0.30474818  0.83414121  0.07004571     0.05100
C655        C  0.31253577  0.83750536  0.02126204    -0.07200
C656        C  0.32690937  0.87144428  0.00595805    -0.08000
C657        C  0.33247719  0.90416280  0.03718697    -0.02500
C658        C  0.32173780  0.90310371  0.08440141     0.04300
N659        N  0.31987080  0.93948080  0.11340954     0.66800
H660        H  0.30258953  0.86684476  0.13787554     0.15700
H661        H  0.33268386  0.87219967  0.96864156     0.15400
N662        N  0.30466600  0.80846049  0.98550776     0.74500
O663        O  0.29932494  0.96142138  0.11087854    -0.38900
O664        O  0.33872128  0.95064092  0.14011914    -0.38900
O665        O  0.28467466  0.81697665  0.96017232    -0.39600
O666        O  0.32208959  0.78504576  0.96780204    -0.39600
C667        C  0.35381863  0.06556440  0.44534960    -0.11900
C668        C  0.34115263  0.04341670  0.48153394     0.05100
C669        C  0.31668920  0.06971675  0.02487217    -0.07200
C670        C  0.30504391  0.09347982  0.47851833    -0.08000
C671        C  0.31691583  0.11302822  0.43968494    -0.02500
C672        C  0.34201145  0.09972573  0.42422296     0.04300
N673        N  0.35562382  0.11951207  0.38607825     0.66800
H674        H  0.37273788  0.05587093  0.43165605     0.15700
H675        H  0.28426964  0.11172335  0.01482543     0.15400
N676        N  0.30436618  0.05250781  0.06619422     0.74500
O677        O  0.37394758  0.14390256  0.39688978    -0.38900
O678        O  0.35581054  0.10266739  0.34501663    -0.38900
O679        O  0.30839230  0.06963478  0.10644081    -0.39600
O680        O  0.28305648  0.03330896  0.06024590    -0.39600
C681        C  0.44992089  0.95452528  0.12920744    -0.11900
C682        C  0.45351489  0.99293386  0.15062597     0.05100
C683        C  0.43793255  0.02628925  0.13419122    -0.07200
C684        C  0.41830327  0.01961182  0.09934136    -0.08000
C685        C  0.41357594  0.98034459  0.08099795    -0.02500
C686        C  0.43017655  0.94766448  0.09553221     0.04300
N687        N  0.42791204  0.90705184  0.07668060     0.66800
H688        H  0.46207071  0.92860441  0.13962271     0.15700
H689        H  0.40580027  0.04498366  0.08843830     0.15400
N690        N  0.44086598  0.06676885  0.15298354     0.74500
O691        O  0.44573708  0.89479025  0.04835055    -0.38900
O692        O  0.46071805  0.97251870  0.50731777    -0.38900
O693        O  0.45202751  0.09301742  0.12703714    -0.39600
O694        O  0.42497267  0.07899390  0.18503695    -0.39600
C695        C  0.44644491  0.93660671  0.38053248    -0.11900
C696        C  0.44492435  0.97010910  0.34952772     0.05100
C697        C  0.42193607  0.99446811  0.34936585    -0.07200
C698        C  0.40189929  0.98718742  0.38285572    -0.08000
C699        C  0.40428521  0.95579436  0.41689113    -0.02500
C700        C  0.42642153  0.92905165  0.41401004     0.04300
N701        N  0.42942846  0.89447262  0.44477088     0.66800
H702        H  0.46370352  0.91679602  0.37987040     0.15700
H703        H  0.38436020  0.00613668  0.38217589     0.15400
N704        N  0.41864769  0.02627610  0.31477353     0.74500
O705        O  0.42281283  0.85989904  0.42840901    -0.38900
O706        O  0.44673818  0.89578342  0.47749122    -0.38900
O707        O  0.41577313  0.01684623  0.27089254    -0.39600
O708        O  0.42534144  0.06224442  0.32591464    -0.39600
C709        C  0.57473711  0.02334041  0.44623522    -0.11900
C710        C  0.59823870  0.00136045  0.43960802     0.05100
C711        C  0.60037706  0.97405421  0.40010833    -0.07200
C712        C  0.57942455  0.97065701  0.36730915    -0.08000
C713        C  0.55670433  0.99518621  0.37182347    -0.02500
C714        C  0.55419764  0.02107536  0.41269414     0.04300
N715        N  0.53140267  0.04614818  0.42066107     0.66800
H716        H  0.57296981  0.04466170  0.47621712     0.15700
H717        H  0.58172025  0.95051919  0.33635572     0.15400
N718        N  0.62392653  0.95107189  0.39092342     0.74500
O719        O  0.53255870  0.08349022  0.40967821    -0.38900
O720        O  0.51516984  0.03543908  0.45252245    -0.38900
O721        O  0.62396947  0.91328825  0.39998164    -0.39600
O722        O  0.63980061  0.96419599  0.35976172    -0.39600
C723        C  0.57768929  0.00461137  0.08044718    -0.11900
C724        C  0.59909166  0.03087058  0.08836675     0.05100
C725        C  0.60030708  0.05205030  0.13342407    -0.07200
C726        C  0.58105208  0.04503202  0.16883859    -0.08000
C727        C  0.56092450  0.01657872  0.16137215    -0.02500
C728        C  0.55933880  0.99633818  0.11639848     0.04300
N729        N  0.53890970  0.96776093  0.10566109     0.66800
H730        H  0.57486293  0.98993403  0.04576884     0.15700
H731        H  0.58240558  0.06098600  0.20314053     0.15400
N732        N  0.62110177  0.07960449  0.14536751     0.74500
O733        O  0.51915015  0.97990388  0.08181143    -0.38900
O734        O  0.54468339  0.93012772  0.10499878    -0.38900
O735        O  0.61594836  0.11745630  0.14625740    -0.39600
O736        O  0.63999953  0.06648831  0.17076614    -0.39600
O737        O  0.52031568  0.03645162  0.81542770    -0.71400
O738        O  0.47140844  0.04054044  0.71130096    -0.71700
O739        O  0.46777232  0.03057471  0.80644137    -0.71500
O740        O  0.52433833  0.04560121  0.71855852    -0.71500
O741        O  0.52611306  0.98000930  0.70570422    -0.71500
O742        O  0.47310153  0.96486461  0.80013014    -0.71500
O743        O  0.47342582  0.97421225  0.70495681    -0.71400
O744        O  0.52592838  0.97132616  0.80330627    -0.71600
V745        V  0.49615768  0.03707115  0.76273368     1.35200
V746        V  0.49969049  0.97386406  0.75377420     1.35200
C747        C  0.53137028  0.00326442  0.82754365     0.77800
C748        C  0.46349419  0.00787246  0.69167559     0.77900
C749        C  0.46069029  0.99497655  0.81805184     0.77700
C750        C  0.53407890  0.01545066  0.69551016     0.77700
C751        C  0.35314859  0.93026526  0.51623928     0.86800
C752        C  0.33675516  0.98089839  0.02306533    -0.53400
C753        C  0.35280290  0.01373043  0.01611948     0.09800
C754        C  0.38208221  0.00056505  0.00725587     0.20700
C755        C  0.36480140  0.93738719  0.97262546    -0.54100
C756        C  0.38138977  0.96964959  0.96482504     0.09900
C757        C  0.37435485  0.94121770  0.55358332    -0.53700
C758        C  0.38947652  0.97419637  0.54208614     0.10400
H759        H  0.31547278  0.98337055  0.02467755     0.14900
H760        H  0.39606863  0.02600350  0.00165814     0.00700
H761        H  0.36294854  0.91297427  0.94635450     0.15200
H762        H  0.37745881  0.92413305  0.58646757     0.15000
C763        C  0.65058742  0.06365293  0.99218044     0.86800
C764        C  0.63160282  0.04838350  0.95201715    -0.53400
C765        C  0.61757104  0.01430400  0.96296137     0.09800
C766        C  0.62587717  0.00132097  0.52130811     0.20700
C767        C  0.62970591  0.07378223  0.54123654    -0.54100
C768        C  0.61719116  0.03825835  0.55317023     0.09900
C769        C  0.66820250  0.02598410  0.00099277    -0.53700
C770        C  0.65614172  0.99915271  0.52532957     0.10400
H771        H  0.62852534  0.06354265  0.91783417     0.14900
H772        H  0.61637045  0.97182273  0.53003226     0.00700
H773        H  0.62517865  0.10310381  0.55785687     0.15200
H774        H  0.68985037  0.03738417  0.51411555     0.15000
O775        O  0.47720140  0.49151996  0.77460965    -0.71400
O776        O  0.53313683  0.50822210  0.68595537    -0.71700
O777        O  0.52798303  0.51097598  0.78307864    -0.71500
O778        O  0.48190110  0.48757357  0.67809443    -0.71500
O779        O  0.46972623  0.55123710  0.67733156    -0.71500
O780        O  0.52011492  0.57603756  0.77543954    -0.71500
O781        O  0.52104414  0.57160459  0.67728098    -0.71400
O782        O  0.46847237  0.55650645  0.77445650    -0.71600
V783        V  0.50496609  0.50088673  0.73020370     1.35200
V784        V  0.49506484  0.56271933  0.72614714     1.35200
C785        C  0.46364460  0.52123386  0.79084036     0.77800
C786        C  0.53619266  0.54230636  0.66529354     0.77900
C787        C  0.53168103  0.54722986  0.79756488     0.77700
C788        C  0.46698577  0.51512110  0.66116640     0.77700
C789        C  0.35226727  0.44512211  0.97264298     0.86800
C790        C  0.36725081  0.46033845  0.92818049    -0.53400
C791        C  0.38313421  0.49300818  0.93615327     0.09800
C792        C  0.37534315  0.51034422  0.48503155     0.20700
C793        C  0.36932369  0.44238310  0.51824221    -0.54100
C794        C  0.38380101  0.47770298  0.52169697     0.09900
C795        C  0.33116905  0.48144767  0.48955710    -0.53700
C796        C  0.34547389  0.51648534  0.49274232     0.10400
H797        H  0.36635114  0.44554561  0.89303574     0.14900
H798        H  0.38698177  0.53891823  0.48788208     0.00700
H799        H  0.37245980  0.41650725  0.54186731     0.15200
H800        H  0.31033285  0.48238156  0.49677550     0.15000
C801        C  0.64595488  0.49696626  0.96723181     0.86800
C802        C  0.66618089  0.54311384  0.47001907    -0.53400
C803        C  0.65300304  0.57868291  0.48023517     0.09800
C804        C  0.62267987  0.57468449  0.48064014     0.20700
C805        C  0.63021439  0.50463735  0.50628391    -0.54100
C806        C  0.61716775  0.54021884  0.51711827     0.09900
C807        C  0.62693430  0.51215278  0.92732395    -0.53700
C808        C  0.61358878  0.54729154  0.93813464     0.10400
H809        H  0.68747618  0.54162414  0.46888073     0.14900
H810        H  0.61227573  0.60397214  0.48860107     0.00700
H811        H  0.62757832  0.47668757  0.52644545     0.15200
H812        H  0.62360712  0.49692048  0.89307826     0.15000
O813        O  0.97083021  0.47344513  0.53981526    -0.71400
O814        O  0.02439804  0.45572699  0.94765431    -0.71700
O815        O  0.02352998  0.45489042  0.54323091    -0.71500
O816        O  0.97281004  0.47325131  0.94914342    -0.71500
O817        O  0.97999439  0.53826725  0.95823079    -0.71500
O818        O  0.03370549  0.51925099  0.54856969    -0.71500
O819        O  0.03203613  0.52080431  0.95329529    -0.71400
O820        O  0.98124695  0.53725060  0.55045499    -0.71600
V821        V  0.99884655  0.46190525  0.99664820     1.35200
V822        V  0.00669781  0.52422870  0.00385008     1.35200
C823        C  0.96637242  0.50741707  0.56028352     0.77800
C824        C  0.03684354  0.48653050  0.93325974     0.77900
C825        C  0.03781216  0.48266568  0.56136727     0.77700
C826        C  0.96761441  0.50985430  0.93726394     0.77700
C827        C  0.15380046  0.42287229  0.75569963     0.86800
C828        C  0.13593409  0.43286481  0.79884862    -0.53400
C829        C  0.12096327  0.46744425  0.79457768     0.09800
C830        C  0.12425135  0.48864367  0.74595754     0.20700
C831        C  0.13373910  0.42050148  0.71324193    -0.54100
C832        C  0.11765539  0.45465713  0.70895098     0.09900
C833        C  0.16939984  0.46205591  0.74666507    -0.53700
C834        C  0.15423964  0.49638049  0.74097319     0.10400
H835        H  0.13344735  0.41208459  0.82877762     0.14900
H836        H  0.11207227  0.51673948  0.74228187     0.00700
H837        H  0.13140762  0.39374910  0.69031948     0.15200
H838        H  0.19078351  0.46236377  0.74372222     0.15000
C839        C  0.85009778  0.48544927  0.75801589     0.86800
C840        C  0.83587883  0.52579107  0.74955286    -0.53400
C841        C  0.85186850  0.55858082  0.74283292     0.09800
C842        C  0.88168603  0.54778597  0.74712686     0.20700
C843        C  0.86934319  0.48121736  0.71483211    -0.54100
C844        C  0.88616736  0.51400714  0.70925607     0.09900
C845        C  0.86881224  0.49255411  0.80026520    -0.53700
C846        C  0.88562560  0.52431089  0.79485712     0.10400
H847        H  0.81451564  0.52756129  0.74611713     0.14900
H848        H  0.89422132  0.57502666  0.74374646     0.00700
H849        H  0.87065253  0.45394137  0.69246859     0.15200
H850        H  0.87116888  0.47076631  0.82928425     0.15000
O851        O  0.03007581  0.01957723  0.54867276    -0.71400
O852        O  0.96915544  0.02114851  0.96283622    -0.71700
O853        O  0.97761321  0.03302639  0.55583437    -0.71500
O854        O  0.02084834  0.00525457  0.95487739    -0.71500
O855        O  0.01624467  0.93970713  0.96227067    -0.71500
O856        O  0.96747101  0.96855284  0.55510705    -0.71500
O857        O  0.96352677  0.95548115  0.96080434    -0.71400
O858        O  0.02029527  0.95607707  0.56182022    -0.71600
V859        V  0.99701843  0.01333107  0.00716448     1.35200
V860        V  0.98972171  0.95082663  0.01036425     1.35200
C861        C  0.03402909  0.98727653  0.57242455     0.77800
C862        C  0.95685373  0.99078190  0.94611879     0.77900
C863        C  0.96340098  0.00427404  0.57144319     0.77700
C864        C  0.02682794  0.96947144  0.94062208     0.77700
C865        C  0.14996859  0.00340201  0.77987592     0.86800
C866        C  0.16273349  0.96224104  0.76610329    -0.53400
C867        C  0.14543225  0.93264951  0.75147361     0.09800
C868        C  0.11642614  0.94659236  0.75329948     0.20700
C869        C  0.13245499  0.01498222  0.73597301    -0.54100
C870        C  0.11496198  0.98511664  0.72187713     0.09900
C871        C  0.12951616  0.99225023  0.81840235    -0.53700
C872        C  0.11202761  0.96301789  0.80451928     0.10400
H873        H  0.18385669  0.95674082  0.76827077     0.14900
H874        H  0.10232529  0.92218353  0.74321587     0.00700
H875        H  0.13281608  0.04506817  0.71992769     0.15200
H876        H  0.12642160  0.00870573  0.85186962     0.15000
C877        C  0.84640846  0.06329931  0.75718292     0.86800
C878        C  0.85944963  0.05031724  0.80463685    -0.53400
C879        C  0.87560438  0.01662305  0.80135999     0.09800
C880        C  0.87568317  0.99702359  0.75091061     0.20700
C881        C  0.86885081  0.06620571  0.72050029    -0.54100
C882        C  0.88382577  0.03152398  0.71692078     0.09900
C883        C  0.83113864  0.02441688  0.74232527    -0.53700
C884        C  0.84636548  0.98967495  0.73965914     0.10400
H885        H  0.85648267  0.06655746  0.83833591     0.14900
H886        H  0.88840111  0.96941225  0.74749275     0.00700
H887        H  0.87202203  0.09278643  0.69803655     0.15200
H888        H  0.81011663  0.02391493  0.73528566     0.15000
N889        N  0.73985799  0.33905698  0.85089450    -0.36300
N890        N  0.71264464  0.27725307  0.90664380    -0.56800
N891        N  0.74233753  0.21477627  0.85496253    -0.36300
N892        N  0.76839351  0.27741149  0.79556174    -0.56800
C893        C  0.71971062  0.36153015  0.86950845     0.27300
C894        C  0.75138718  0.36196546  0.81648542     0.27300
C895        C  0.72536160  0.19093663  0.87985121     0.27300
C896        C  0.75501665  0.19051347  0.82249838     0.27300
C897        C  0.70244486  0.31084832  0.92831136     0.35900
C898        C  0.70456014  0.24477447  0.93221302     0.35900
C899        C  0.78303445  0.31068158  0.78436056     0.35900
C900        C  0.78297765  0.24403997  0.78320423     0.35900
C901        C  0.71859316  0.39915340  0.84659816    -0.21500
C902        C  0.73857896  0.39938872  0.81326611    -0.21500
C903        C  0.72765580  0.15090255  0.86351018    -0.21500
C904        C  0.74649768  0.15052630  0.82801250    -0.21500
C905        C  0.68802071  0.29979922  0.96851872    -0.22600
C906        C  0.68939881  0.25780833  0.97104254    -0.22600
C907        C  0.80669600  0.29838047  0.76392721    -0.22600
C908        C  0.80640190  0.25640459  0.76205544    -0.22600
C909        C  0.70355341  0.35057814  0.90896155    -0.18000
C910        C  0.77509352  0.35194149  0.79213377    -0.18000
C911        C  0.77597507  0.20253932  0.79171421    -0.17900
C912        C  0.70841586  0.20358857  0.91802429    -0.17900
H913        H  0.70522430  0.42440891  0.85392314     0.15000
H914        H  0.74356967  0.42460452  0.79001696     0.15000
H915        H  0.71723942  0.12437459  0.87646406     0.15000
H916        H  0.75345862  0.12339700  0.80941939     0.15000
H917        H  0.67689778  0.31972807  0.99243010     0.13200
H918        H  0.67959381  0.23897934  0.99735610     0.13200
H919        H  0.82272957  0.31745362  0.75205143     0.13200
H920        H  0.82214409  0.23729865  0.74791659     0.13200
H921        H  0.74772766  0.31237465  0.86533556     0.26500
H922        H  0.74707134  0.24488236  0.86282393     0.26500
N923        N  0.75324236  0.71345029  0.61969814    -0.36300
N924        N  0.78881434  0.77120248  0.66215201    -0.56800
N925        N  0.75464357  0.83762607  0.62693240    -0.36300
N926        N  0.72015460  0.78023756  0.58172444    -0.56800
C927        C  0.77319218  0.68815216  0.63339466     0.27300
C928        C  0.73809234  0.69275211  0.58777673     0.27300
C929        C  0.77652415  0.85829900  0.63987139     0.27300
C930        C  0.73929657  0.86353501  0.60117789     0.27300
C931        C  0.79784049  0.73728703  0.68442708     0.35900
C932        C  0.79957405  0.80323650  0.68563897     0.35900
C933        C  0.70527355  0.74807457  0.56807491     0.35900
C934        C  0.70514906  0.81417642  0.57510406     0.35900
C935        C  0.77077543  0.65089305  0.60976975    -0.21500
C936        C  0.74865765  0.65375200  0.58096928    -0.21500
C937        C  0.77516421  0.89782534  0.62195800    -0.21500
C938        C  0.75158230  0.90123339  0.59788036    -0.21500
C939        C  0.81480310  0.74780223  0.72168702    -0.22600
C940        C  0.81587386  0.78976268  0.72250337    -0.22600
C941        C  0.68097409  0.76178535  0.55119974    -0.22600
C942        C  0.68087946  0.80367318  0.55582356    -0.22600
C943        C  0.79228725  0.69702171  0.66928279    -0.18000
C944        C  0.71375177  0.70672162  0.56817103    -0.18000
C945        C  0.71386007  0.85460961  0.58307925    -0.17900
C946        C  0.79595895  0.84432560  0.67249070    -0.17900
H947        H  0.78330116  0.62413819  0.61365078     0.15000
H948        H  0.74088561  0.62936339  0.55861668     0.15000
H949        H  0.78925941  0.92222022  0.62718115     0.15000
H950        H  0.74425324  0.92869154  0.58076160     0.15000
H951        H  0.82541678  0.72739408  0.74551875     0.13200
H952        H  0.82744362  0.80823079  0.74713156     0.13200
H953        H  0.66498967  0.74355853  0.53682592     0.13200
H954        H  0.66492762  0.82405991  0.54557982     0.13200
H955        H  0.74816618  0.74104739  0.63602139     0.26500
H956        H  0.74888503  0.80970621  0.64083567     0.26500
N957        N  0.26029109  0.15656621  0.88313879    -0.36300
N958        N  0.29170447  0.22442875  0.91804534    -0.56800
N959        N  0.26003866  0.27805440  0.86001595    -0.36300
N960        N  0.22896202  0.21058785  0.82208022    -0.56800
C961        C  0.28114869  0.13653581  0.90294720     0.27300
C962        C  0.24700843  0.12929150  0.85531105     0.27300
C963        C  0.28011593  0.30310721  0.87243300     0.27300
C964        C  0.24733508  0.29539756  0.82244643     0.27300
C965        C  0.30139611  0.19504935  0.94698072     0.35900
C966        C  0.29992535  0.26039707  0.93646427     0.35900
C967        C  0.21353736  0.17702912  0.82167481     0.35900
C968        C  0.21331161  0.24254301  0.80972406     0.35900
C969        C  0.28091100  0.09599180  0.88776568    -0.21500
C970        C  0.25933677  0.09140641  0.85793528    -0.21500
C971        C  0.28028344  0.33669735  0.84224831    -0.21500
C972        C  0.25963693  0.33172524  0.81049659    -0.21500
C973        C  0.31581889  0.21235036  0.98435705    -0.22600
C974        C  0.31481167  0.25400868  0.97775063    -0.22600
C975        C  0.18799594  0.18754668  0.80827060    -0.22600
C976        C  0.18779270  0.22925482  0.80117412    -0.22600
C977        C  0.29920060  0.15291661  0.93717656    -0.18000
C978        C  0.22275005  0.13696230  0.83130247    -0.18000
C979        C  0.22232998  0.28315343  0.80507641    -0.17900
C980        C  0.29668700  0.29804880  0.91294156    -0.17900
H981        H  0.29460997  0.07194861  0.89784475     0.15000
H982        H  0.25319051  0.06321997  0.84069009     0.15000
H983        H  0.29341687  0.36265618  0.84383051     0.15000
H984        H  0.25352592  0.35333386  0.78321476     0.15000
H985        H  0.32648830  0.19657773  0.01257644     0.13200
H986        H  0.32469827  0.27678864  0.99966677     0.13200
H987        H  0.17125326  0.16736562  0.80447667     0.13200
H988        H  0.17087625  0.24760838  0.79076455     0.13200
H989        H  0.25357437  0.18563018  0.89265000     0.26500
H990        H  0.25280564  0.25425665  0.88071206     0.26500
N991        N  0.24891753  0.65776105  0.63178957    -0.36300
N992        N  0.21239270  0.71713151  0.67400373    -0.56800
N993        N  0.24271091  0.78324465  0.63026256    -0.36300
N994        N  0.27769428  0.72396866  0.58353963    -0.56800
C995        C  0.22965472  0.63231809  0.64686748     0.27300
C996        C  0.26472261  0.63602035  0.60166605     0.27300
C997        C  0.22133521  0.80448992  0.64677719     0.27300
C998        C  0.25632515  0.80807556  0.60013338     0.27300
C999        C  0.20272947  0.68277569  0.69426882     0.35900
C1000       C  0.19967920  0.74925431  0.69486596     0.35900
C1001       C  0.29440946  0.69219942  0.57501349     0.35900
C1002       C  0.29129434  0.75851312  0.57383640     0.35900
C1003       C  0.23360325  0.59378860  0.62662172    -0.21500
C1004       C  0.25559169  0.59618120  0.59794096    -0.21500
C1005       C  0.22157217  0.84335907  0.62691692    -0.21500
C1006       C  0.24341229  0.84549294  0.59752531    -0.21500
C1007       C  0.18367623  0.69308182  0.72805051    -0.22600
C1008       C  0.18169559  0.73508715  0.72835705    -0.22600
C1009       C  0.31847031  0.70648319  0.55891192    -0.22600
C1010       C  0.31663600  0.74840534  0.55880664    -0.22600
C1011       C  0.20921092  0.64221063  0.67992002    -0.18000
C1012       C  0.28808000  0.65032018  0.57972129    -0.18000
C1013       C  0.28103544  0.79901382  0.57751578    -0.17900
C1014       C  0.20244706  0.79086717  0.68132405    -0.17900
H1015       H  0.22195408  0.56658780  0.63206310     0.15000
H1016       H  0.26404490  0.57121208  0.57711622     0.15000
H1017       H  0.20767909  0.86808960  0.63327440     0.15000
H1018       H  0.24931732  0.87192568  0.57704125     0.15000
H1019       H  0.17195323  0.67245573  0.74939828     0.13200
H1020       H  0.16803801  0.75303209  0.74990648     0.13200
H1021       H  0.33570511  0.68855825  0.54900031     0.13200
H1022       H  0.33233308  0.76901069  0.54906925     0.13200
H1023       H  0.25278170  0.68687145  0.64506388     0.26500
H1024       H  0.24929332  0.75528993  0.64320217     0.26500
C1025       C  0.84825793  0.92377433  0.69339061    -0.11900
C1026       C  0.83541008  0.94883958  0.72779325     0.05100
C1027       C  0.81164975  0.93502258  0.74880612    -0.07200
C1028       C  0.80031089  0.89880788  0.73278446    -0.08000
C1029       C  0.81204692  0.87583642  0.69623451    -0.02500
C1030       C  0.83658796  0.88721046  0.67755973     0.04300
N1031       N  0.84882535  0.86270123  0.64091015     0.66800
H1032       H  0.86662160  0.93346920  0.67727322     0.15700
H1033       H  0.78144906  0.88951491  0.74735667     0.15400
N1034       N  0.79843027  0.95708862  0.78631006     0.74500
O1035       O  0.84079931  0.86591946  0.59802028    -0.38900
O1036       O  0.86096287  0.83053798  0.65311429    -0.38900
O1037       O  0.77722635  0.97565069  0.77609047    -0.39600
O1038       O  0.80199795  0.94558177  0.82912878    -0.39600
C1039       C  0.81904789  0.16766732  0.80055403    -0.11900
C1040       C  0.79490501  0.16977872  0.77621143     0.05100
C1041       C  0.78951042  0.14031866  0.74002541    -0.07200
C1042       C  0.80691194  0.10728288  0.73309448    -0.08000
C1043       C  0.83007063  0.10296008  0.76083796    -0.02500
C1044       C  0.83726703  0.13641328  0.79115365     0.04300
N1045       N  0.86332372  0.14127060  0.81023292     0.66800
H1046       H  0.82413845  0.19134162  0.82647899     0.15700
H1047       H  0.80216177  0.08517077  0.70527706     0.15400
N1048       N  0.76687855  0.14337107  0.70940379     0.74500
O1049       O  0.87942110  0.16226265  0.78632344    -0.38900
O1050       O  0.86653033  0.13922591  0.85526170    -0.38900
O1051       O  0.76997441  0.15770488  0.66773212    -0.39600
O1052       O  0.74777063  0.11960469  0.71648972    -0.39600
C1053       C  0.17366361  0.87204965  0.76614181    -0.11900
C1054       C  0.15486770  0.89107565  0.73685767     0.05100
C1055       C  0.14826104  0.87247397  0.69237253    -0.07200
C1056       C  0.16294803  0.83835286  0.67570230    -0.08000
C1057       C  0.18398833  0.82217080  0.70314873    -0.02500
C1058       C  0.18817112  0.83817246  0.74999151     0.04300
N1059       N  0.20803292  0.82217778  0.78120581     0.66800
H1060       H  0.17816894  0.88498497  0.80127421     0.15700
H1061       H  0.15885337  0.82578253  0.64024827     0.15400
N1062       N  0.12805512  0.88943291  0.66245114     0.74500
O1063       O  0.22951432  0.84129750  0.78467022    -0.38900
O1064       O  0.20077473  0.80064748  0.81625518    -0.38900
O1065       O  0.13282330  0.92062643  0.63761836    -0.39600
O1066       O  0.10457258  0.87731537  0.66659645    -0.39600
C1067       C  0.17182458  0.05275071  0.84204309    -0.11900
C1068       C  0.17043441  0.03640325  0.79457863     0.05100
C1069       C  0.18894296  0.05121729  0.76066159    -0.07200
C1070       C  0.20572334  0.08400540  0.77264952    -0.08000
C1071       C  0.20546208  0.10151632  0.81892469    -0.02500
C1072       C  0.18897308  0.08480776  0.85402924     0.04300
N1073       N  0.18936537  0.10071263  0.90217106     0.66800
H1074       H  0.16009307  0.04100791  0.87099551     0.15700
H1075       H  0.21918363  0.09562985  0.74583108     0.15400
N1076       N  0.19120580  0.03280164  0.71397632     0.74500
O1077       O  0.17683203  0.13328763  0.91165356    -0.38900
O1078       O  0.20701509  0.08855670  0.93098159    -0.38900
O1079       O  0.17958248  0.04863866  0.67844356    -0.39600
O1080       O  0.20617450  0.00220100  0.70760437    -0.39600
C1081       C  0.06909684  0.97348042  0.69323991    -0.11900
C1082       C  0.09416944  0.98944264  0.68384722     0.05100
C1083       C  0.09888589  0.00643579  0.63811315    -0.07200
C1084       C  0.07911636  0.00504254  0.60235907    -0.08000
C1085       C  0.05443785  0.98694897  0.61118458    -0.02500
C1086       C  0.04939514  0.97197881  0.65787153     0.04300
N1087       N  0.02409733  0.95698656  0.67141415     0.66800
H1088       H  0.06452525  0.96202124  0.72873554     0.15700
H1089       H  0.08320924  0.01771672  0.56721303     0.15400
N1090       N  0.12362844  0.02479740  0.62719907     0.74500
O1091       O  0.02131908  0.91883161  0.67540221    -0.38900
O1092       O  0.00911460  0.98035161  0.69554175    -0.38900
O1093       O  0.14390648  0.00268837  0.62137847    -0.39600
O1094       O  0.12599464  0.06311491  0.63066980    -0.39600
C1095       C  0.06229285  0.92824213  0.89669052    -0.11900
C1096       C  0.04592987  0.96353502  0.89988268     0.05100
C1097       C  0.04924162  0.99449150  0.86486379    -0.07200
C1098       C  0.06975629  0.99188082  0.83163300    -0.08000
C1099       C  0.08714837  0.95874406  0.83135543    -0.02500
C1100       C  0.08279972  0.92579392  0.86219652     0.04300
N1101       N  0.09979384  0.89073098  0.85931449     0.66800
H1102       H  0.05989572  0.90354545  0.92206215     0.15700
H1103       H  0.07282993  0.01697076  0.80695505     0.15400
N1104       N  0.03210336  0.02923945  0.86209384     0.74500
O1105       O  0.12232348  0.89254129  0.87871886    -0.38900
O1106       O  0.09627039  0.86553527  0.82524149    -0.38900
O1107       O  0.04054774  0.06328652  0.87706151    -0.39600
O1108       O  0.01401154  0.02891646  0.83075223    -0.39600
C1109       C  0.90709528  0.04104807  0.86225882    -0.11900
C1110       C  0.89520422  0.00738800  0.83985997     0.05100
C1111       C  0.90341785  0.96760683  0.85338546    -0.07200
C1112       C  0.92337361  0.96281867  0.88826677    -0.08000
C1113       C  0.93532093  0.99688835  0.91033227    -0.02500
C1114       C  0.92642929  0.03646601  0.89728275     0.04300
N1115       N  0.93652625  0.07297876  0.91879944     0.66800
H1116       H  0.90183544  0.07192241  0.85179738     0.15700
H1117       H  0.92949601  0.93215888  0.89809915     0.15400
N1118       N  0.89129070  0.93172511  0.83403975     0.74500
O1119       O  0.95315040  0.09343499  0.89547721    -0.38900
O1120       O  0.92261642  0.09114675  0.95011783    -0.38900
O1121       O  0.90402570  0.91029521  0.80391110    -0.39600
O1122       O  0.87337742  0.91489064  0.85823578    -0.39600
C1123       C  0.95001427  0.02763099  0.65373882    -0.11900
C1124       C  0.94273436  0.01209915  0.60817711     0.05100
C1125       C  0.91577792  0.00366204  0.59903973    -0.07200
C1126       C  0.89691281  0.01101279  0.63479693    -0.08000
C1127       C  0.90429212  0.02601992  0.67992409    -0.02500
C1128       C  0.93092422  0.03412239  0.68976275     0.04300
N1129       N  0.93865455  0.04742635  0.73682254     0.66800
H1130       H  0.97055868  0.03392382  0.66158298     0.15700
H1131       H  0.87630801  0.00464312  0.62736968     0.15400
N1132       N  0.90682034  0.98878281  0.55341823     0.74500
O1133       O  0.94322953  0.02078484  0.76847215    -0.38900
O1134       O  0.93329213  0.08358010  0.75000518    -0.38900
O1135       O  0.89996847  0.95181402  0.55014644    -0.39600
O1136       O  0.89699879  0.01414155  0.52424180    -0.39600
C1137       C  0.82177959  0.42642823  0.72811698    -0.11900
C1138       C  0.83035544  0.45096433  0.76672833     0.05100
C1139       C  0.81797121  0.44563782  0.81216628    -0.07200
C1140       C  0.80107902  0.41247496  0.81932314    -0.08000
C1141       C  0.79356000  0.38654779  0.78106940    -0.02500
C1142       C  0.80319440  0.39532389  0.73444755     0.04300
N1143       N  0.79302035  0.37564054  0.69232870     0.66800
H1144       H  0.82847690  0.43249744  0.69192668     0.15700
H1145       H  0.79298010  0.40776589  0.85495705     0.15400
N1146       N  0.82156526  0.47427822  0.85100710     0.74500
O1147       O  0.80786371  0.35099306  0.66975911    -0.38900
O1148       O  0.77502983  0.39386766  0.66918179    -0.38900
O1149       O  0.81336657  0.51067636  0.84712310    -0.39600
O1150       O  0.83347391  0.46349508  0.88888623    -0.39600
C1151       C  0.81620413  0.61069870  0.74997511    -0.11900
C1152       C  0.83986163  0.59846404  0.72748838     0.05100
C1153       C  0.84826092  0.62049934  0.68652275    -0.07200
C1154       C  0.83266892  0.65283315  0.66875459    -0.08000
C1155       C  0.80840702  0.66309275  0.68994277    -0.02500
C1156       C  0.80027888  0.64182285  0.73115779     0.04300
N1157       N  0.77547910  0.65024459  0.75359532     0.66800
H1158       H  0.80928627  0.59452696  0.78141944     0.15700
H1159       H  0.83915193  0.66924999  0.63718023     0.15400
N1160       N  0.87141340  0.60919002  0.66026923     0.74500
O1161       O  0.77513725  0.67170729  0.79156448    -0.38900
O1162       O  0.75648760  0.62638696  0.74529469    -0.38900
O1163       O  0.86871387  0.58933580  0.62140940    -0.39600
O1164       O  0.89195993  0.63026255  0.66619719    -0.39600
C1165       C  0.18730498  0.55203024  0.75583307    -0.11900
C1166       C  0.16616776  0.53652609  0.72836609     0.05100
C1167       C  0.15848945  0.55731549  0.68620654    -0.07200
C1168       C  0.17173538  0.59289543  0.67224799    -0.08000
C1169       C  0.19317496  0.60775552  0.69908437    -0.02500
C1170       C  0.20091619  0.58714239  0.74120880     0.04300
N1171       N  0.22363706  0.60028914  0.76753332     0.66800
H1172       H  0.19379720  0.53602155  0.78783626     0.15700
H1173       H  0.16627371  0.60768784  0.63883674     0.15400
N1174       N  0.13954294  0.53981864  0.65415411     0.74500
O1175       O  0.22161049  0.63033693  0.79613105    -0.38900
O1176       O  0.24624406  0.58909342  0.75338468    -0.38900
O1177       O  0.11565754  0.55085807  0.65647691    -0.39600
O1178       O  0.14606502  0.50967377  0.62799291    -0.39600
C1179       C  0.17774932  0.35480199  0.73125100    -0.11900
C1180       C  0.17206504  0.38573674  0.76605329     0.05100
C1181       C  0.18468618  0.38221668  0.81178519    -0.07200
C1182       C  0.19850243  0.34691614  0.82391052    -0.08000
C1183       C  0.20386432  0.31644245  0.79003274    -0.02500
C1184       C  0.19443238  0.32112446  0.74264782     0.04300
N1185       N  0.20380097  0.29416788  0.70549304     0.66800
H1186       H  0.17049230  0.35764581  0.69475651     0.15700
H1187       H  0.20689484  0.34464004  0.85979636     0.15400
N1188       N  0.18518545  0.41494456  0.84620108     0.74500
O1189       O  0.19186080  0.26105389  0.69750222    -0.38900
O1190       O  0.22730832  0.29769831  0.69113658    -0.38900
O1191       O  0.17255924  0.41078667  0.88498670    -0.39600
O1192       O  0.20494165  0.43825769  0.84624770    -0.39600
C1193       C  0.10089910  0.44696545  0.62449693    -0.11900
C1194       C  0.09582999  0.45866460  0.67239039     0.05100
C1195       C  0.07072314  0.47630829  0.68310320    -0.07200
C1196       C  0.05238440  0.48353775  0.64615956    -0.08000
C1197       C  0.05795250  0.47314072  0.59842069    -0.02500
C1198       C  0.08244563  0.45430625  0.58761006     0.04300
N1199       N  0.08966211  0.44431739  0.53923822     0.66800
H1200       H  0.11986655  0.43361509  0.61511256     0.15700
H1201       H  0.03338184  0.49710151  0.65505946     0.15400
N1202       N  0.06238220  0.48480946  0.73122602     0.74500
O1203       O  0.10386339  0.46908858  0.51641072    -0.38900
O1204       O  0.08948852  0.40725288  0.52619167    -0.38900
O1205       O  0.06114133  0.52169393  0.74488736    -0.39600
O1206       O  0.04727517  0.45939792  0.75093396    -0.39600
C1207       C  0.07380224  0.51542869  0.88592093    -0.11900
C1208       C  0.05697231  0.48236799  0.89483672     0.05100
C1209       C  0.06051285  0.44577684  0.86779999    -0.07200
C1210       C  0.08128679  0.44246060  0.83525360    -0.08000
C1211       C  0.09855980  0.47493795  0.82759560    -0.02500
C1212       C  0.09434482  0.51216972  0.85238815     0.04300
N1213       N  0.11121283  0.54643800  0.84585575     0.66800
H1214       H  0.07142131  0.54388233  0.90579125     0.15700
H1215       H  0.08378484  0.41406798  0.81521932     0.15400
N1216       N  0.04322776  0.41162621  0.87183774     0.74500
O1217       O  0.10329504  0.57525221  0.81936941    -0.38900
O1218       O  0.12846778  0.55386191  0.87754396    -0.38900
O1219       O  0.02616306  0.40608774  0.83925850    -0.39600
O1220       O  0.05078281  0.38130189  0.89627285    -0.39600
C1221       C  0.91340626  0.55669702  0.85783433    -0.11900
C1222       C  0.90992239  0.52491029  0.82455280     0.05100
C1223       C  0.92716771  0.49058173  0.82602928    -0.07200
C1224       C  0.94600702  0.48760085  0.86243546    -0.08000
C1225       C  0.94846872  0.51796703  0.89791539    -0.02500
C1226       C  0.93257733  0.55376705  0.89433823     0.04300
N1227       N  0.93436652  0.58649518  0.92847896     0.66800
H1228       H  0.90022794  0.58297643  0.85712299     0.15700
H1229       H  0.95860437  0.46063738  0.86327817     0.15400
N1230       N  0.92563666  0.45777805  0.79167975     0.74500
O1231       O  0.91761566  0.58837265  0.96202684    -0.38900
O1232       O  0.94568388  0.61894982  0.91582705    -0.38900
O1233       O  0.94333160  0.45490776  0.75987057    -0.39600
O1234       O  0.91346726  0.42579116  0.80326683    -0.39600
C1235       C  0.90102165  0.49721616  0.62644800    -0.11900
C1236       C  0.90691001  0.51543112  0.67105814     0.05100
C1237       C  0.93220591  0.53364033  0.67718469    -0.07200
C1238       C  0.95068237  0.53158918  0.63975126    -0.08000
C1239       C  0.94503535  0.51162094  0.59632106    -0.02500
C1240       C  0.91963182  0.49493215  0.58946181     0.04300
N1241       N  0.91168899  0.47710818  0.54466382     0.66800
H1242       H  0.88157106  0.48476947  0.61973726     0.15700
H1243       H  0.97006820  0.54469030  0.64540596     0.15400
N1244       N  0.94040172  0.55322074  0.72091576     0.74500
O1245       O  0.91071223  0.43861728  0.54143396    -0.38900
O1246       O  0.89733717  0.49816816  0.51691966    -0.38900
O1247       O  0.95742905  0.53527852  0.74658849    -0.39600
O1248       O  0.93937759  0.59178989  0.72290902    -0.39600
C1249       C  0.70250855  0.66420417  0.49694441    -0.11900
C1250       C  0.69662399  0.67622450  0.54421362     0.05100
C1251       C  0.67501286  0.65859217  0.56806652    -0.07200
C1252       C  0.66010500  0.62872211  0.54477768    -0.08000
C1253       C  0.66678281  0.61509408  0.49853364    -0.02500
C1254       C  0.68804417  0.63338742  0.47409049     0.04300
N1255       N  0.68991884  0.61446670  0.92663735     0.66800
H1256       H  0.71892460  0.67803485  0.47827157     0.15700
H1257       H  0.64408657  0.61444975  0.56414718     0.15400
N1258       N  0.66856053  0.66913919  0.61662226     0.74500
O1259       O  0.67963996  0.63623133  0.89414702    -0.38900
O1260       O  0.71014392  0.59333094  0.91658731    -0.38900
O1261       O  0.64851103  0.69137521  0.62427933    -0.39600
O1262       O  0.67680764  0.64621052  0.64987387    -0.39600
C1263       C  0.69591327  0.40673476  0.96814676    -0.11900
C1264       C  0.68644053  0.38304980  0.92980569     0.05100
C1265       C  0.66214386  0.39335241  0.90851479    -0.07200
C1266       C  0.64896153  0.42886908  0.92282346    -0.08000
C1267       C  0.65986797  0.45600752  0.95701239    -0.02500
C1268       C  0.68257157  0.44241942  0.98286598     0.04300
N1269       N  0.69208845  0.46329934  0.02479919     0.66800
H1270       H  0.71407269  0.39788167  0.98613994     0.15700
H1271       H  0.62990216  0.43439505  0.90665876     0.15400
N1272       N  0.65087429  0.36900693  0.87094092     0.74500
O1273       O  0.68482392  0.45068795  0.06549809    -0.38900
O1274       O  0.71352736  0.48258135  0.02204513    -0.38900
O1275       O  0.63141503  0.34671832  0.88084064    -0.39600
O1276       O  0.65417662  0.37989004  0.82787086    -0.39600
C1277       C  0.30003703  0.35917424  0.96586726    -0.11900
C1278       C  0.31154952  0.33376546  0.93090607     0.05100
C1279       C  0.33721366  0.34188000  0.91490367    -0.07200
C1280       C  0.35014506  0.37658299  0.93152102    -0.08000
C1281       C  0.33766639  0.40519630  0.96234431    -0.02500
C1282       C  0.30638777  0.39305620  0.47522825     0.04300
N1283       N  0.28820124  0.41927448  0.49989400     0.66800
H1284       H  0.27509311  0.35119521  0.45834241     0.15700
H1285       H  0.37020201  0.38124556  0.91939670     0.15400
N1286       N  0.35066710  0.31518813  0.88207695     0.74500
O1287       O  0.27196843  0.43982742  0.47517659    -0.38900
O1288       O  0.28202423  0.41030975  0.54253864    -0.38900
O1289       O  0.35247145  0.32563719  0.83854416    -0.39600
O1290       O  0.36735761  0.29016372  0.89876599    -0.39600
C1291       C  0.33505043  0.56035266  0.56232287    -0.11900
C1292       C  0.33352947  0.55428368  0.51252210     0.05100
C1293       C  0.31793179  0.58116169  0.48463977    -0.07200
C1294       C  0.30451148  0.61366555  0.50706861    -0.08000
C1295       C  0.30584723  0.61936721  0.55702968    -0.02500
C1296       C  0.32167955  0.59273859  0.58470162     0.04300
N1297       N  0.32376021  0.59711644  0.63573408     0.66800
H1298       H  0.34543315  0.53840170  0.58452345     0.15700
H1299       H  0.28637004  0.61948505  0.00968888     0.15400
N1300       N  0.30480040  0.56078578  0.95398026     0.74500
O1301       O  0.30995559  0.57438156  0.66202780    -0.38900
O1302       O  0.34449672  0.61259628  0.65308648    -0.38900
O1303       O  0.28407694  0.53961657  0.95541382    -0.39600
O1304       O  0.30950451  0.58101062  0.91647464    -0.39600
C1305       C  0.42780632  0.54796586  0.84671892    -0.11900
C1306       C  0.44294169  0.51467572  0.82843514     0.05100
C1307       C  0.43798277  0.47521832  0.84710784    -0.07200
C1308       C  0.41899661  0.46994432  0.88254092    -0.08000
C1309       C  0.40401617  0.50265535  0.90053961    -0.02500
C1310       C  0.40830377  0.54201775  0.88235232     0.04300
N1311       N  0.39193818  0.57537551  0.89780019     0.66800
H1312       H  0.43077782  0.57846688  0.83283427     0.15700
H1313       H  0.41581459  0.43934385  0.89608158     0.15400
N1314       N  0.45140777  0.43934017  0.83027864     0.74500
O1315       O  0.39928777  0.59721511  0.93294924    -0.38900
O1316       O  0.36794384  0.57600937  0.88540548    -0.38900
O1317       O  0.46895620  0.42370687  0.85688574    -0.39600
O1318       O  0.43969622  0.41661582  0.80024183    -0.39600
C1319       C  0.44713621  0.46859301  0.59765387    -0.11900
C1320       C  0.44608167  0.50520743  0.62488279     0.05100
C1321       C  0.42432222  0.53177220  0.61804070    -0.07200
C1322       C  0.40474222  0.52220858  0.58424423    -0.08000
C1323       C  0.40531076  0.48548073  0.55778711    -0.02500
C1324       C  0.42697348  0.45859171  0.56443405     0.04300
N1325       N  0.42968076  0.42258793  0.53532733     0.66800
H1326       H  0.46379501  0.44790270  0.60169697     0.15700
H1327       H  0.38892009  0.54395696  0.57888989     0.15400
N1328       N  0.42132914  0.56823123  0.64630256     0.74500
O1329       O  0.43702549  0.42562471  0.49214378    -0.38900
O1330       O  0.43985910  0.42539613  0.98495509    -0.38900
O1331       O  0.43100123  0.60124929  0.63135725    -0.39600
O1332       O  0.41408933  0.56567707  0.68965795    -0.39600
C1333       C  0.57172011  0.58013811  0.83147128    -0.11900
C1334       C  0.54971211  0.55521257  0.83853758     0.05100
C1335       C  0.54701588  0.53483946  0.88295985    -0.07200
C1336       C  0.56702973  0.53739222  0.91762591    -0.08000
C1337       C  0.59025763  0.55890706  0.90869016    -0.02500
C1338       C  0.59219684  0.58165103  0.86568044     0.04300
N1339       N  0.61528358  0.60445776  0.85451360     0.66800
H1340       H  0.57398525  0.59611726  0.79766784     0.15700
H1341       H  0.56533781  0.51950147  0.95019947     0.15400
N1342       N  0.52453739  0.51029570  0.89320433     0.74500
O1343       O  0.63228876  0.58844808  0.82692553    -0.38900
O1344       O  0.61419116  0.64295845  0.85802047    -0.38900
O1345       O  0.52697150  0.47186633  0.89114777    -0.39600
O1346       O  0.50632120  0.52558546  0.91869858    -0.39600
C1347       C  0.58117334  0.52546571  0.63704159    -0.11900
C1348       C  0.55751235  0.54676539  0.62896564     0.05100
C1349       C  0.55476662  0.56914172  0.58575425    -0.07200
C1350       C  0.57465922  0.56704110  0.55063283    -0.08000
C1351       C  0.59788810  0.54415574  0.55781562    -0.02500
C1352       C  0.60141679  0.52452219  0.60280517     0.04300
N1353       N  0.62577131  0.50532683  0.61604799     0.66800
H1354       H  0.58414799  0.50949691  0.67074387     0.15700
H1355       H  0.57136910  0.58257340  0.51681126     0.15400
N1356       N  0.53168245  0.59286172  0.57551615     0.74500
O1357       O  0.64215093  0.52594831  0.64027392    -0.38900
O1358       O  0.62653715  0.46682374  0.61910394    -0.38900
O1359       O  0.53324831  0.63133641  0.57827646    -0.39600
O1360       O  0.51409930  0.57739150  0.54889243    -0.39600
C1361       C  0.65277668  0.13103957  0.94780320    -0.11900
C1362       C  0.66506124  0.10352290  0.97974594     0.05100
C1363       C  0.69024037  0.11477842  0.99851647    -0.07200
C1364       C  0.70379983  0.14807376  0.97879461    -0.08000
C1365       C  0.69248507  0.17164906  0.94220252    -0.02500
C1366       C  0.66635731  0.16375774  0.92796742     0.04300
N1367       N  0.65342847  0.18768670  0.89204125     0.66800
H1368       H  0.63242781  0.12714931  0.93700094     0.15700
H1369       H  0.72336004  0.15549094  0.99200352     0.15400
N1370       N  0.69430883  0.11111499  0.55558155     0.74500
O1371       O  0.65288131  0.17420148  0.84933010    -0.38900
O1372       O  0.63608757  0.21331878  0.90517667    -0.38900
O1373       O  0.71601631  0.09195652  0.55720511    -0.38000
O1374       O  0.68628845  0.12906058  0.59328357    -0.39600
C1375       C  0.70305410  0.90778105  0.52287389    -0.11900
C1376       C  0.69706143  0.88937351  0.56681651     0.05100
C1377       C  0.67670780  0.90620001  0.59566627    -0.07200
C1378       C  0.66336096  0.94151004  0.58072945    -0.08000
C1379       C  0.67032794  0.96109830  0.53805664    -0.02500
C1380       C  0.68757326  0.93368058  0.99707799     0.04300
N1381       N  0.69503911  0.94925017  0.95120191     0.66800
H1382       H  0.71611366  0.88484624  0.99267538     0.15700
H1383       H  0.64794347  0.95440000  0.60339117     0.15400
N1384       N  0.66962446  0.88861221  0.64066420     0.74500
O1385       O  0.71577426  0.97027611  0.94843872    -0.38900
O1386       O  0.68681332  0.93113083  0.91382873    -0.38900
O1387       O  0.67766519  0.90553056  0.67894007    -0.39600
O1388       O  0.64928429  0.86660014  0.64233033    -0.39600
C1389       C  0.30635102  0.86379587  0.59350319    -0.11900
C1390       C  0.29794015  0.83394304  0.56018872     0.05100
C1391       C  0.30670653  0.83733616  0.51192545    -0.07200
C1392       C  0.32478300  0.86765768  0.49912266    -0.08000
C1393       C  0.33424307  0.89638705  0.53265424    -0.02500
C1394       C  0.32333662  0.89564859  0.57996005     0.04300
N1395       N  0.32910466  0.92701650  0.61475534     0.66800
H1396       H  0.29935319  0.86269454  0.63033727     0.15700
H1397       H  0.33043361  0.86940692  0.46169854     0.15400
N1398       N  0.29658976  0.81185083  0.47431136     0.74500
O1399       O  0.32156388  0.96340103  0.60787943    -0.38900
O1400       O  0.34220916  0.91851519  0.65213730    -0.38900
O1401       O  0.27868511  0.82644652  0.44766704    -0.39600
O1402       O  0.31143509  0.78421055  0.45718808    -0.39600
C1403       C  0.35481516  0.08131335  0.97474535    -0.11900
C1404       C  0.34173277  0.05601199  0.00745155     0.05100
C1405       C  0.31691093  0.05930052  0.50004119    -0.07200
C1406       C  0.30389559  0.10285511  0.00297383    -0.08000
C1407       C  0.31566644  0.12375879  0.96516095    -0.02500
C1408       C  0.34199267  0.11438275  0.95292694     0.04300
N1409       N  0.35574122  0.13661696  0.91687115     0.66800
H1410       H  0.37475414  0.07475047  0.96386599     0.15700
H1411       H  0.28616212  0.10453435  0.49181693     0.15400
N1412       N  0.30458463  0.04313806  0.54199293     0.74500
O1413       O  0.37232235  0.16304124  0.93022374    -0.38900
O1414       O  0.35796359  0.12092563  0.87538378    -0.38900
O1415       O  0.30867602  0.06098177  0.58177945    -0.39600
O1416       O  0.28352378  0.02313311  0.53685710    -0.39600
C1417       C  0.45234164  0.00948536  0.60538875    -0.11900
C1418       C  0.44370118  0.00843399  0.65317185     0.05100
C1419       C  0.41669893  0.00297937  0.66274494    -0.07200
C1420       C  0.39933753  0.99536045  0.62495109    -0.08000
C1421       C  0.40827048  0.99186270  0.57743629    -0.02500
C1422       C  0.43490156  0.00141846  0.56722016     0.04300
N1423       N  0.44516337  0.00109540  0.51935763     0.66800
H1424       H  0.47299365  0.01479657  0.59778529     0.15700
H1425       H  0.37874882  0.98993161  0.63327056     0.15400
N1426       N  0.40637728  0.00344759  0.71047076     0.74500
O1427       O  0.44681813  0.03475280  0.49764426    -0.38900
O1428       O  0.41664210  0.88070017  0.10232366    -0.38900
O1429       O  0.39067487  0.03207437  0.72177354    -0.39600
O1430       O  0.40462868  0.96989561  0.73237627    -0.39600
C1431       C  0.43649120  0.94977620  0.87348383    -0.11900
C1432       C  0.43865553  0.98811244  0.85195292     0.05100
C1433       C  0.41998876  0.01874586  0.86374264    -0.07200
C1434       C  0.40030622  0.01084680  0.89787078    -0.08000
C1435       C  0.39923543  0.97330079  0.92214930    -0.02500
C1436       C  0.41731163  0.94208892  0.90830726     0.04300
N1437       N  0.41810829  0.90309872  0.93088628     0.66800
H1438       H  0.45053376  0.92567270  0.86471122     0.15700
H1439       H  0.38594785  0.03440680  0.90560063     0.15400
N1440       N  0.42135821  0.05844317  0.84272666     0.74500
O1441       O  0.40682799  0.87367227  0.90980908    -0.38900
O1442       O  0.43784089  0.89516585  0.95697898    -0.38900
O1443       O  0.41486497  0.06306107  0.79924241    -0.39600
O1444       O  0.43493635  0.08569278  0.86329531    -0.39600
C1445       C  0.57270443  0.03324703  0.93738284    -0.11900
C1446       C  0.59324744  0.00449222  0.93507038     0.05100
C1447       C  0.59131402  0.97190060  0.90149160    -0.07200
C1448       C  0.57018634  0.97097163  0.86850639    -0.08000
C1449       C  0.55089942  0.00212495  0.86787300    -0.02500
C1450       C  0.55173523  0.03251472  0.90454223     0.04300
N1451       N  0.53175692  0.06330993  0.90925989     0.66800
H1452       H  0.57361030  0.05791212  0.96370439     0.15700
H1453       H  0.56966135  0.94670758  0.84169105     0.15400
N1454       N  0.61085127  0.94028585  0.89878405     0.74500
O1455       O  0.53643459  0.09858385  0.89336484    -0.38900
O1456       O  0.51487643  0.05962156  0.94229445    -0.38900
O1457       O  0.60542856  0.90578322  0.91615793    -0.39600
O1458       O  0.62815576  0.94219565  0.86626897    -0.39600
C1459       C  0.57542143  0.00654260  0.58107059    -0.11900
C1460       C  0.59543943  0.03521161  0.58979769     0.05100
C1461       C  0.59404619  0.05863978  0.63313492    -0.07200
C1462       C  0.57357186  0.05199421  0.66612258    -0.08000
C1463       C  0.55455493  0.02180366  0.65817600    -0.02500
C1464       C  0.55559759  0.99895493  0.61478553     0.04300
N1465       N  0.53650286  0.96845256  0.60324010     0.66800
H1466       H  0.57489845  0.98945996  0.54754598     0.15700
H1467       H  0.57313093  0.06977874  0.69925678     0.15400
N1468       N  0.61368382  0.08779864  0.64625371     0.74500
O1469       O  0.51780374  0.97786918  0.57523632    -0.38900
O1470       O  0.54333774  0.93133776  0.60610350    -0.38900
O1471       O  0.60766988  0.12531923  0.64467332    -0.39600
O1472       O  0.63188815  0.07663175  0.67445585    -0.39600
loop_ 
_geom_bond_atom_site_label_1 
_geom_bond_atom_site_label_2 
_geom_bond_distance 
_geom_bond_site_symmetry_2 
_ccdc_geom_bond_type 
O1            V9   1.903       .  S
O1           C11   1.264   1_545  A
O2            V9   1.904       .  S
O2           C12   1.261   1_545  A
O3            V9   1.901       .  S
O3           C13   1.267   1_545  A
O4            V9   1.911       .  S
O4           C14   1.268       .  A
O5           V10   1.895       .  S
O5           C14   1.262   1_565  A
O6           V10   1.893       .  S
O6           C13   1.261       .  A
O7           V10   1.885       .  S
O7           C12   1.267       .  A
O8           V10   1.901       .  S
O8           C11   1.267       .  A
V9           V10   2.085   1_545  T
C11         C713   1.481       .  S
C12         C682   1.481       .  S
C13         C696   1.476       .  S
C14         C727   1.480       .  S
C15          C21   1.524       .  S
C15         C752   1.533       .  S
C15         C755   1.556   1_554  S
C15         C657   1.531       .  S
C16         C751   1.533       .  S
C16          H23   1.083       .  S
C16          C17   1.363   1_565  D
C17          C18   1.552   1_545  S
C17         C668   1.500       .  S
C18          C20   1.546       .  S
C18         C758   1.529       .  S
C18          H24   1.107   1_565  S
C19         C751   1.554       .  S
C19          H25   1.084       .  S
C19          C20   1.372       .  D
C20         C699   1.491       .  S
C21          H26   1.083       .  S
C21          C22   1.353       .  D
C22         C754   1.539   1_565  S
C22         C685   1.478       .  S
C27          C28   1.552       .  S
C27          C33   1.536       .  S
C27         C767   1.541       .  S
C27         C626   1.537       .  S
C28          H35   1.084       .  S
C28          C29   1.358       .  D
C29         C766   1.532       .  S
C29         C710   1.479       .  S
C30          C34   1.539       .  S
C30          C32   1.556   1_565  S
C30         C765   1.534   1_564  S
C30          H36   1.109       .  S
C31         C763   1.543   1_554  S
C31          H37   1.083       .  S
C31          C32   1.370       .  D
C32         C724   1.506       .  S
C33         H774   1.082       .  S
C33         C770   1.365   1_545  D
C34         C769   1.364   1_565  D
C34         C643   1.479       .  S
H38         C769   1.080   1_556  S
O39          V47   1.900       .  S
O39          C49   1.265       .  A
O40          V47   1.899       .  S
O40          C50   1.267       .  A
O41          V47   1.900       .  S
O41          C51   1.264       .  A
O42          V47   1.903       .  S
O42          C52   1.263       .  A
O43          V48   1.895       .  S
O43          C52   1.264       .  A
O44          V48   1.905       .  S
O44          C51   1.265       .  A
O45          V48   1.915       .  S
O45          C50   1.266       .  A
O46          V48   1.911       .  S
O46          C49   1.268       .  A
V47          V48   2.083       .  T
C49         C570   1.492       .  S
C50         C612   1.487       .  S
C51         C598   1.474       .  S
C52         C584   1.469       .  S
C53          C54   1.540       .  S
C53         C795   1.538       .  S
C53         C793   1.554       .  S
C53         C545   1.544       .  S
C54          H61   1.087       .  S
C54          C55   1.360       .  D
C55         C792   1.534       .  S
C55         C573   1.478       .  S
C56          C60   1.548       .  S
C56          C58   1.540   1_556  S
C56         C791   1.542       .  S
C56          H62   1.110       .  S
C57         C789   1.537   1_554  S
C57          H63   1.086       .  S
C57          C58   1.361       .  D
C58         C587   1.481       .  S
C59         C789   1.536       .  S
C59          H64   1.078       .  S
C59          C60   1.369       .  D
C60         C556   1.483   1_556  S
C65          C71   1.545       .  S
C65         C802   1.533       .  S
C65         C805   1.536       .  S
C65         C531   1.531       .  S
C66         C801   1.535       .  S
C66          H73   1.083       .  S
C66          C67   1.366       .  D
C67          C68   1.544       .  S
C67         C517   1.475   1_556  S
C68          C70   1.551   1_556  S
C68         C808   1.539       .  S
C68          H74   1.110       .  S
C69         C801   1.534   1_554  S
C69          H75   1.084       .  S
C69          C70   1.364       .  D
C70         C615   1.498       .  S
C71          H76   1.086       .  S
C71          C72   1.362       .  D
C72         C804   1.539       .  S
C72         C601   1.479       .  S
O77         V821   1.897   1_554  S
O77          C87   1.261       .  A
O78          V85   1.894   1_455  S
O78          C88   1.261       .  A
O79         V821   1.919   1_454  S
O79          C89   1.268       .  A
O80          V85   1.888       .  S
O80          C90   1.266       .  A
O81          V86   1.912   1_655  S
O81          C90   1.263       .  A
O82         V822   1.903       .  S
O82          C89   1.264       .  A
O83          V86   1.910       .  S
O83          C88   1.270       .  A
O84         V822   1.906   1_655  S
O84          C87   1.268       .  A
V85         O813   1.901       .  S
V85         O815   1.909   1_655  S
V85          V86   2.085   1_655  T
V86         O818   1.908       .  S
V86         O820   1.909   1_455  S
C87         C503   1.477       .  S
C88         C472   1.489       .  S
C89         C461   1.484       .  S
C90         C489   1.479       .  S
C91          C92   1.537       .  S
C91          C97   1.528       .  S
C91          C95   1.553       .  S
C91         C444   1.550       .  S
C92          H99   1.084       .  S
C92          C93   1.367       .  D
C93          C94   1.535       .  S
C93         C475   1.485       .  S
C94          C98   1.548       .  S
C94          C96   1.548       .  S
C94         H100   1.108       .  S
C95         H101   1.084       .  S
C95          C96   1.381       .  D
C96         C458   1.507       .  S
C97         H102   1.087       .  S
C97          C98   1.363       .  D
C98         C430   1.486       .  S
C103        C104   1.520       .  S
C103        C109   1.528       .  S
C103        C107   1.547       .  S
C103        C402   1.533       .  S
C104        H111   1.087       .  S
C104        C105   1.361       .  D
C105        C106   1.548       .  S
C105        C416   1.494       .  S
C106        C110   1.544       .  S
C106        C108   1.534       .  S
C106        H112   1.101       .  S
C107        H113   1.084       .  S
C107        C108   1.382       .  D
C108        C500   1.496       .  S
C109        H114   1.085       .  S
C109        C110   1.361       .  D
C110        C486   1.476       .  S
O115        V859   1.894   1_455  S
O115        C125   1.262   1_545  A
O116        V123   1.889   1_655  S
O116        C126   1.261   1_545  A
O117        V859   1.907       .  S
O117        C127   1.266   1_545  A
O118        V123   1.912       .  S
O118        C128   1.268   1_545  A
O119        V124   1.919   1_455  S
O119        C128   1.268       .  A
O120        V860   1.916       .  S
O120        C127   1.267       .  A
O121        V124   1.911       .  S
O121        C126   1.269       .  A
O122        V860   1.931   1_455  S
O122        C125   1.272       .  A
V123        O851   1.899       .  S
V123        O853   1.912   1_455  S
V123        V124   2.080   1_445  T
V124        O856   1.908       .  S
V124        O858   1.925   1_655  S
C125        C349   1.491       .  S
C126        C377   1.485   1_565  S
C127        C388   1.486   1_565  S
C128        C360   1.496       .  S
C129        C130   1.531   1_545  S
C129        C135   1.536   1_545  S
C129        C133   1.553       .  S
C129        C332   1.549       .  S
C130        H137   1.086       .  S
C130        C131   1.366       .  D
C131        C132   1.537       .  S
C131        C318   1.488       .  S
C132        C136   1.533       .  S
C132        C134   1.538       .  S
C132        H138   1.108       .  S
C133        H139   1.082       .  S
C133        C134   1.379   1_545  D
C134        C346   1.497       .  S
C135        H140   1.083   1_565  S
C135        C136   1.359       .  D
C136        C363   1.471       .  S
C141        C142   1.530       .  S
C141        C147   1.550       .  S
C141        C145   1.536       .  S
C141        C307   1.539       .  S
C142        H149   1.083       .  S
C142        C143   1.367       .  D
C143        C144   1.540   1_545  S
C143        C374   1.485       .  S
C144        C148   1.540       .  S
C144        C146   1.537   1_565  S
C144        H150   1.110       .  S
C145        H151   1.086       .  S
C145        C146   1.363       .  D
C146        C391   1.475       .  S
C147        H152   1.082       .  S
C147        C148   1.371   1_545  D
C148        C290   1.490       .  S
N153        C158   1.353       .  A
N153        C157   1.354       .  A
N153        H185   1.040       .  S
N154        C161   1.348       .  A
N154        C162   1.347       .  A
N155        C160   1.355       .  A
N155        C159   1.356       .  A
N155        H186   1.036       .  S
N156        C163   1.358       .  A
N156        C164   1.355       .  A
C157        C165   1.388       .  A
C157        C173   1.417       .  A
C158        C174   1.416       .  A
C158        C166   1.385       .  A
C159        C167   1.386       .  A
C159        C176   1.421       .  A
C160        C175   1.425       .  A
C160        C168   1.390       .  A
C161        C173   1.410       .  A
C161        C169   1.386       .  A
C162        C176   1.411       .  A
C162        C170   1.387       .  A
C163        C171   1.383       .  A
C163        C174   1.421       .  A
C164        C172   1.388       .  A
C164        C175   1.426       .  A
C165        C166   1.375       .  A
C165        H177   1.082       .  S
C166        H178   1.082       .  S
C167        C168   1.372       .  A
C167        H179   1.082       .  S
C168        H180   1.081       .  S
C169        C170   1.375       .  A
C169        H181   1.082       .  S
C170        H182   1.083       .  S
C171        C172   1.374       .  A
C171        H183   1.081       .  S
C172        H184   1.081       .  S
C173        C528   1.480       .  S
C174        C405   1.504       .  S
C175        C304   1.495       .  S
C176        C629   1.483       .  S
N187        C192   1.356       .  A
N187        C191   1.359       .  A
N187        H219   0.993       .  S
N188        C195   1.352       .  A
N188        C196   1.350       .  A
N189        C194   1.356       .  A
N189        C193   1.353       .  A
N189        H220   0.995       .  S
N190        C197   1.352       .  A
N190        C198   1.354       .  A
C191        C199   1.387       .  A
C191        C207   1.420       .  A
C192        C208   1.421       .  A
C192        C200   1.390       .  A
C193        C201   1.389       .  A
C193        C210   1.415       .  A
C194        C209   1.416       .  A
C194        C202   1.389       .  A
C195        C207   1.413       .  A
C195        C203   1.386       .  A
C196        C210   1.411       .  A
C196        C204   1.386       .  A
C197        C205   1.387       .  A
C197        C208   1.417       .  A
C198        C206   1.384       .  A
C198        C209   1.414       .  A
C199        C200   1.377       .  A
C199        H211   1.083       .  S
C200        H212   1.083       .  S
C201        C202   1.371       .  A
C201        H213   1.083       .  S
C202        H214   1.083       .  S
C203        C204   1.372       .  A
C203        H215   1.082       .  S
C204        H216   1.082       .  S
C205        C206   1.373       .  A
C205        H217   1.082       .  S
C206        H218   1.082       .  S
C207        C419   1.492       .  S
C208        C514   1.485       .  S
C209        C640   1.487       .  S
C210        C293   1.477       .  S
N221        C226   1.355       .  A
N221        C225   1.355       .  A
N221        H253   1.039       .  S
N222        C229   1.347       .  A
N222        C230   1.348       .  A
N223        C228   1.352       .  A
N223        C227   1.354       .  A
N223        H254   1.040       .  S
N224        C231   1.351       .  A
N224        C232   1.351       .  A
C225        C233   1.388       .  A
C225        C241   1.419       .  A
C226        C242   1.416       .  A
C226        C234   1.385       .  A
C227        C235   1.387       .  A
C227        C244   1.416       .  A
C228        C243   1.415       .  A
C228        C236   1.387       .  A
C229        C241   1.410       .  A
C229        C237   1.387       .  A
C230        C244   1.409       .  A
C230        C238   1.386       .  A
C231        C239   1.386       .  A
C231        C242   1.412       .  A
C232        C240   1.386       .  A
C232        C243   1.413       .  A
C233        C234   1.378       .  A
C233        H245   1.082       .  S
C234        H246   1.082       .  S
C235        C236   1.377       .  A
C235        H247   1.082       .  S
C236        H248   1.083       .  S
C237        C238   1.378       .  A
C237        H249   1.082       .  S
C238        H250   1.082       .  S
C239        C240   1.378       .  A
C239        H251   1.082       .  S
C240        H252   1.082       .  S
C241        C671   1.485       .  S
C242        C335   1.492       .  S
C243        C447   1.490       .  S
C244        C542   1.488       .  S
N255        C260   1.356       .  A
N255        C259   1.356       .  A
N255        H287   1.048       .  S
N256        C263   1.353       .  A
N256        C264   1.355       .  A
N257        C262   1.358       .  A
N257        C261   1.360       .  A
N257        H288   1.048       .  S
N258        C265   1.355       .  A
N258        C266   1.355       .  A
C259        C267   1.388       .  A
C259        C275   1.424       .  A
C260        C276   1.424       .  A
C260        C268   1.388       .  A
C261        C269   1.386       .  A
C261        C278   1.425       .  A
C262        C277   1.427       .  A
C262        C270   1.387       .  A
C263        C275   1.419       .  A
C263        C271   1.387       .  A
C264        C278   1.417       .  A
C264        C272   1.385       .  A
C265        C273   1.385       .  A
C265        C276   1.420       .  A
C266        C274   1.387       .  A
C266        C277   1.423       .  A
C267        C268   1.374       .  A
C267        H279   1.082       .  S
C268        H280   1.082       .  S
C269        C270   1.373       .  A
C269        H281   1.081       .  S
C270        H282   1.082       .  S
C271        C272   1.374       .  A
C271        H283   1.082       .  S
C272        H284   1.082       .  S
C273        C274   1.376       .  A
C273        H285   1.082       .  S
C274        H286   1.082       .  S
C275        C433   1.493       .  S
C276        C559   1.494       .  S
C277        C654   1.508       .  S
C278        C321   1.503       .  S
C289        C290   1.410       .  A
C289        C294   1.404       .  A
C289        H296   1.081       .  S
C290        C291   1.417       .  A
C291        C292   1.394       .  A
C291        N298   1.427       .  S
C292        C293   1.392       .  A
C292        H297   1.084       .  S
C293        C294   1.402       .  A
C294        N295   1.430       .  S
N295        O299   1.262       .  A
N295        O300   1.262       .  A
N298        O302   1.262       .  A
N298        O301   1.262       .  A
C303        C304   1.397       .  A
C303        C308   1.399       .  A
C303        H310   1.084       .  S
C304        C305   1.412       .  A
C305        C306   1.399       .  A
C305        N312   1.428       .  S
C306        C307   1.406       .  A
C306        H311   1.080       .  S
C307        C308   1.427       .  A
C308        N309   1.431       .  S
N309        O313   1.262       .  A
N309        O314   1.262       .  A
N312        O316   1.262       .  A
N312        O315   1.262       .  A
C317        C318   1.397       .  A
C317        C322   1.396       .  A
C317        H324   1.084       .  S
C318        C319   1.411       .  A
C319        C320   1.411       .  A
C319        N326   1.428       .  S
C320        C321   1.410       .  A
C320        H325   1.084       .  S
C321        C322   1.413       .  A
C322        N323   1.425       .  S
N323        O327   1.262       .  A
N323        O328   1.262       .  A
N326        O330   1.262       .  A
N326        O329   1.260       .  A
C331        C332   1.419       .  A
C331        C336   1.401       .  A
C331        H338   1.078       .  S
C332        C333   1.421       .  A
C333        C334   1.410       .  A
C333        N340   1.429       .  S
C334        C335   1.401       .  A
C334        H339   1.083       .  S
C335        C336   1.402       .  A
C336        N337   1.431       .  S
N337        O341   1.262       .  A
N337        O342   1.262       .  A
N340        O344   1.262       .  A
N340        O343   1.261       .  A
C345        C346   1.404       .  A
C345        C350   1.403       .  A
C345        H352   1.083       .  S
C346        C347   1.411       .  A
C347        C348   1.406       .  A
C347        N354   1.428   1_565  S
C348        C349   1.408       .  A
C348        H353   1.084   1_565  S
C349        C350   1.414       .  A
C350        N351   1.427       .  S
N351        O355   1.262       .  A
N351        O356   1.262       .  A
N354        O358   1.261       .  A
N354        O357   1.262   1_545  A
C359        C360   1.415       .  A
C359        C364   1.412       .  A
C359        H366   1.083       .  S
C360        C361   1.419       .  A
C361        C362   1.395       .  A
C361        N368   1.427   1_565  S
C362        C363   1.393       .  A
C362        H367   1.085   1_565  S
C363        C364   1.399       .  A
C364        N365   1.430       .  S
N365        O369   1.262       .  A
N365        O370   1.262       .  A
N368        O372   1.262       .  A
N368        O371   1.262       .  A
C373        C374   1.399       .  A
C373        C378   1.387       .  A
C373        H380   1.084       .  S
C374        C375   1.412   1_545  A
C375        C376   1.405       .  A
C375        N382   1.427       .  S
C376        C377   1.407   1_565  A
C376        H381   1.083       .  S
C377        C378   1.416       .  A
C378        N379   1.428       .  S
N379        O383   1.262       .  A
N379        O384   1.262       .  A
N382        O386   1.262       .  A
N382        O385   1.262       .  A
C387        C388   1.408       .  A
C387        C392   1.406       .  A
C387        H394   1.084       .  S
C388        C389   1.418   1_545  A
C389        C390   1.399   1_565  A
C389        N396   1.427       .  S
C390        C391   1.394       .  A
C390        H395   1.083   1_545  S
C391        C392   1.402       .  A
C392        N393   1.427       .  S
N393        O397   1.261       .  A
N393        O398   1.262       .  A
N396        O400   1.262       .  A
N396        O399   1.262       .  A
C401        C402   1.405       .  A
C401        C406   1.401       .  A
C401        H408   1.081       .  S
C402        C403   1.420       .  A
C403        C404   1.403       .  A
C403        N410   1.433       .  S
C404        C405   1.407       .  A
C404        H409   1.084       .  S
C405        C406   1.415       .  A
C406        N407   1.427       .  S
N407        O411   1.262       .  A
N407        O412   1.262       .  A
N410        O414   1.262       .  A
N410        O413   1.262       .  A
C415        C416   1.404       .  A
C415        C420   1.397       .  A
C415        H422   1.084       .  S
C416        C417   1.417       .  A
C417        C418   1.406       .  A
C417        N424   1.427       .  S
C418        C419   1.401       .  A
C418        H423   1.084       .  S
C419        C420   1.409       .  A
C420        N421   1.427       .  S
N421        O425   1.262       .  A
N421        O426   1.262       .  A
N424        O428   1.262       .  A
N424        O427   1.262       .  A
C429        C430   1.407       .  A
C429        C434   1.404       .  A
C429        H436   1.084       .  S
C430        C431   1.408       .  A
C431        C432   1.404       .  A
C431        N438   1.428       .  S
C432        C433   1.404       .  A
C432        H437   1.084       .  S
C433        C434   1.407       .  A
C434        N435   1.429       .  S
N435        O439   1.262       .  A
N435        O440   1.262       .  A
N438        O442   1.262       .  A
N438        O441   1.261       .  A
C443        C444   1.422       .  A
C443        C448   1.418       .  A
C443        H450   1.081       .  S
C444        C445   1.426       .  A
C445        C446   1.390       .  A
C445        N452   1.428       .  S
C446        C447   1.390       .  A
C446        H451   1.085       .  S
C447        C448   1.406       .  A
C448        N449   1.431       .  S
N449        O453   1.261       .  A
N449        O454   1.263       .  A
N452        O456   1.262       .  A
N452        O455   1.262       .  A
C457        C458   1.406       .  A
C457        C462   1.407       .  A
C457        H464   1.083       .  S
C458        C459   1.422       .  A
C459        C460   1.403       .  A
C459        N466   1.427       .  S
C460        C461   1.396       .  A
C460        H465   1.085       .  S
C461        C462   1.413       .  A
C462        N463   1.427       .  S
N463        O467   1.262       .  A
N463        O468   1.262       .  A
N466        O470   1.262       .  A
N466        O469   1.262       .  A
C471        C472   1.406       .  A
C471        C476   1.404       .  A
C471        H478   1.083       .  S
C472        C473   1.418       .  A
C473        C474   1.392       .  A
C473        N480   1.428       .  S
C474        C475   1.398       .  A
C474        H479   1.085       .  S
C475        C476   1.411       .  A
C476        N477   1.427       .  S
N477        O481   1.262       .  A
N477        O482   1.262       .  A
N480        O484   1.262       .  A
N480        O483   1.262       .  A
C485        C486   1.397       .  A
C485        C490   1.404       .  A
C485        H492   1.084       .  S
C486        C487   1.415       .  A
C487        C488   1.389       .  A
C487        N494   1.431       .  S
C488        C489   1.399       .  A
C488        H493   1.085       .  S
C489        C490   1.418       .  A
C490        N491   1.427       .  S
N491        O495   1.262       .  A
N491        O496   1.262       .  A
N494        O498   1.262       .  A
N494        O497   1.262       .  A
C499        C500   1.403       .  A
C499        C504   1.393       .  A
C499        H506   1.083       .  S
C500        C501   1.427       .  A
C501        C502   1.401       .  A
C501        N508   1.430       .  S
C502        C503   1.397       .  A
C502        H507   1.084       .  S
C503        C504   1.411       .  A
C504        N505   1.427       .  S
N505        O509   1.262       .  A
N505        O510   1.262       .  A
N508        O512   1.262       .  A
N508        O511   1.262       .  A
C513        C514   1.400   1_556  A
C513        C518   1.400       .  A
C513        H520   1.084       .  S
C514        C515   1.410       .  A
C515        C516   1.395       .  A
C515        N522   1.426       .  S
C516        C517   1.397       .  A
C516        H521   1.085       .  S
C517        C518   1.413   1_554  A
C518       N1255   1.428       .  S
N519       C1254   1.428       .  S
N519        O523   1.262       .  A
N519        O524   1.262       .  A
N522        O526   1.262       .  A
N522        O525   1.262       .  A
C527        C528   1.397       .  A
C527        C532   1.399       .  A
C527        H534   1.084       .  S
C528        C529   1.404       .  A
C529        C530   1.393       .  A
C529        N536   1.427       .  S
C530        C531   1.409       .  A
C530        H535   1.082       .  S
C531        C532   1.423       .  A
C532        N533   1.428       .  S
N533        O537   1.262       .  A
N533        O538   1.262       .  A
N536        O540   1.262       .  A
N536        O539   1.262       .  A
C541        C542   1.396       .  A
C541       C1282   1.402       .  A
C541       H1284   1.085       .  S
C542        C543   1.406       .  A
C543        C544   1.397       .  A
C543        N550   1.427       .  S
C544        C545   1.411       .  A
C544        H549   1.084       .  S
C545       C1282   1.429       .  A
C546       C1277   1.401       .  A
C546       C1281   1.421       .  A
C546        N547   1.428   1_556  S
N547        O551   1.262       .  A
N547        O552   1.262       .  A
H548       C1277   1.084       .  S
N550        O554   1.262       .  A
N550        O553   1.262       .  A
C555        C556   1.400       .  A
C555        C560   1.401       .  A
C555        H562   1.083       .  S
C556        C557   1.414   1_554  A
C557        C558   1.399   1_556  A
C557       N1300   1.428       .  S
C558        C559   1.401       .  A
C558       H1299   1.084       .  S
C559        C560   1.413       .  A
C560        N561   1.426       .  S
N561        O565   1.262       .  A
N561        O566   1.262       .  A
H563       C1294   1.084       .  S
N564       C1293   1.426       .  S
N564        O568   1.261       .  A
N564        O567   1.262       .  A
C569        C570   1.413       .  A
C569        C574   1.407       .  A
C569        H576   1.083       .  S
C570        C571   1.419       .  A
C571        C572   1.392       .  A
C571        N578   1.427       .  S
C572        C573   1.393       .  A
C572        H577   1.083       .  S
C573        C574   1.400       .  A
C574        N575   1.424       .  S
N575        O579   1.262       .  A
N575        O580   1.261       .  A
N578        O582   1.262       .  A
N578        O581   1.262       .  A
C583        C584   1.402       .  A
C583        C588   1.404       .  A
C583        H590   1.084       .  S
C584        C585   1.406       .  A
C585        C586   1.402       .  A
C585        N592   1.430       .  S
C586        C587   1.403       .  A
C586        H591   1.084       .  S
C587        C588   1.408       .  A
C588        N589   1.426       .  S
N589        O593   1.261   1_554  A
N589       O1330   1.262   1_554  A
N592        O596   1.262       .  A
N592        O595   1.262       .  A
O594       N1325   1.261       .  A
C597        C598   1.400       .  A
C597        C602   1.402       .  A
C597        H604   1.084       .  S
C598        C599   1.411       .  A
C599        C600   1.395       .  A
C599        N606   1.427       .  S
C600        C601   1.399       .  A
C600        H605   1.084       .  S
C601        C602   1.414       .  A
C602        N603   1.427       .  S
N603        O607   1.262       .  A
N603        O608   1.262       .  A
N606        O610   1.262       .  A
N606        O609   1.262       .  A
C611        C612   1.401       .  A
C611        C616   1.400       .  A
C611        H618   1.084       .  S
C612        C613   1.415       .  A
C613        C614   1.403       .  A
C613        N620   1.427       .  S
C614        C615   1.403       .  A
C614        H619   1.083       .  S
C615        C616   1.420       .  A
C616        N617   1.429       .  S
N617        O621   1.262       .  A
N617        O622   1.262       .  A
N620        O624   1.262       .  A
N620        O623   1.262       .  A
C625        C626   1.408       .  A
C625        C630   1.390       .  A
C625        H632   1.080       .  S
C626        C627   1.424       .  A
C627        C628   1.405       .  A
C627       N1370   1.429       .  S
C628        C629   1.398       .  A
C628        H633   1.084       .  S
C629        C630   1.404       .  A
C630        N631   1.428       .  S
N631        O635   1.262       .  A
N631        O636   1.262       .  A
N634       C1363   1.429   1_554  S
N634        O638   1.262       .  A
N634        O637   1.262       .  A
C639        C640   1.399       .  A
C639       C1380   1.398   1_554  A
C639       H1382   1.084   1_554  S
C640        C641   1.411       .  A
C641        C642   1.397       .  A
C641        N648   1.427       .  S
C642        C643   1.399       .  A
C642        H647   1.084       .  S
C643       C1380   1.414   1_554  A
C644       C1375   1.397       .  A
C644       C1379   1.413       .  A
C644        N645   1.428       .  S
N645        O649   1.262       .  A
N645        O650   1.262       .  A
H646       C1375   1.084       .  S
N648        O652   1.262       .  A
N648        O651   1.262       .  A
C653        C654   1.407       .  A
C653        C658   1.401       .  A
C653        H660   1.084       .  S
C654        C655   1.417       .  A
C655        C656   1.400       .  A
C655        N662   1.426   1_554  S
C656        C657   1.401       .  A
C656        H661   1.077   1_554  S
C657        C658   1.421       .  A
C658        N659   1.433       .  S
N659        O663   1.261       .  A
N659        O664   1.262       .  A
N662        O666   1.262       .  A
N662        O665   1.262       .  A
C667        C668   1.402       .  A
C667        C672   1.395       .  A
C667        H674   1.076       .  S
C668       C1405   1.425       .  A
C669       C1404   1.426       .  A
C669       C1406   1.400       .  A
C669        N676   1.428       .  S
C670        C671   1.397       .  A
C670       C1405   1.402       .  A
C670       H1411   1.084       .  S
C671        C672   1.407       .  A
C672        N673   1.427       .  S
N673        O677   1.262       .  A
N673        O678   1.262       .  A
H675       C1406   1.084       .  S
N676        O680   1.262       .  A
N676        O679   1.262       .  A
C681        C682   1.398       .  A
C681        C686   1.385       .  A
C681        H688   1.084       .  S
C682        C683   1.419   1_565  A
C683        C684   1.402       .  A
C683        N690   1.427       .  S
C684        C685   1.399   1_545  A
C684        H689   1.084       .  S
C685        C686   1.415       .  A
C686        N687   1.428       .  S
N687        O691   1.260       .  A
N687       O1428   1.262       .  A
N690        O694   1.262       .  A
N690        O693   1.262       .  A
O692       N1423   1.261   1_565  A
C695        C696   1.399       .  A
C695        C700   1.402       .  A
C695        H702   1.084       .  S
C696        C697   1.406       .  A
C697        C698   1.401       .  A
C697        N704   1.429   1_565  S
C698        C699   1.404       .  A
C698        H703   1.079   1_565  S
C699        C700   1.418       .  A
C700        N701   1.429       .  S
N701        O705   1.262       .  A
N701        O706   1.261       .  A
N704        O708   1.262       .  A
N704        O707   1.262       .  A
C709        C710   1.397       .  A
C709        C714   1.396       .  A
C709        H716   1.085       .  S
C710        C711   1.412   1_545  A
C711        C712   1.401       .  A
C711        N718   1.427       .  S
C712        C713   1.403       .  A
C712        H717   1.084       .  S
C713        C714   1.415   1_565  A
C714        N715   1.427       .  S
N715        O719   1.262       .  A
N715        O720   1.262       .  A
N718        O722   1.262       .  A
N718        O721   1.262       .  A
C723        C724   1.403       .  A
C723        C728   1.395   1_545  A
C723        H730   1.082   1_545  S
C724        C725   1.426       .  A
C725        C726   1.408       .  A
C725        N732   1.427       .  S
C726        C727   1.399       .  A
C726        H731   1.084       .  S
C727        C728   1.411   1_545  A
C728        N729   1.428       .  S
N729        O733   1.262       .  A
N729        O734   1.262       .  A
N732        O736   1.262       .  A
N732        O735   1.262       .  A
O737        V745   1.905       .  S
O737        C747   1.264       .  A
O738        V745   1.901       .  S
O738        C748   1.262       .  A
O739        V745   1.897       .  S
O739        C749   1.264   1_545  A
O740        V745   1.907       .  S
O740        C750   1.268       .  A
O741        V746   1.905       .  S
O741        C750   1.264   1_565  A
O742        V746   1.891       .  S
O742        C749   1.263       .  A
O743        V746   1.897       .  S
O743        C748   1.263   1_565  A
O744        V746   1.912       .  S
O744        C747   1.269   1_565  A
V745        V746   2.085   1_545  T
C747       C1449   1.492       .  S
C748       C1418   1.464       .  S
C749       C1432   1.481       .  S
C750       C1463   1.485       .  S
C751        C757   1.533       .  S
C751       C1393   1.541       .  S
C752        H759   1.081       .  S
C752        C753   1.366   1_565  D
C753        C754   1.560       .  S
C753       C1404   1.508       .  S
C754        C756   1.546   1_544  S
C754        H760   1.108       .  S
C755        H761   1.081       .  S
C755        C756   1.372       .  D
C756       C1435   1.498       .  S
C757        H762   1.084       .  S
C757        C758   1.367       .  D
C758       C1421   1.482       .  S
C763        C764   1.552       .  S
C763        C769   1.536   1_556  S
C763       C1362   1.542       .  S
C764        H771   1.084       .  S
C764        C765   1.362       .  D
C765       C1446   1.489       .  S
C766        C770   1.538   1_545  S
C766        C768   1.552       .  S
C766        H772   1.109   1_545  S
C767        H773   1.084       .  S
C767        C768   1.370       .  D
C768       C1460   1.505       .  S
C770       C1379   1.477       .  S
O775        V783   1.900       .  S
O775        C785   1.266       .  A
O776        V783   1.902       .  S
O776        C786   1.268       .  A
O777        V783   1.900       .  S
O777        C787   1.263       .  A
O778        V783   1.907       .  S
O778        C788   1.264       .  A
O779        V784   1.901       .  S
O779        C788   1.268       .  A
O780        V784   1.913       .  S
O780        C787   1.267       .  A
O781        V784   1.917       .  S
O781        C786   1.266       .  A
O782        V784   1.916       .  S
O782        C785   1.268       .  A
V783        V784   2.082       .  T
C785       C1306   1.499       .  S
C786       C1348   1.488       .  S
C787       C1334   1.480       .  S
C788       C1320   1.495       .  S
C789        C790   1.538       .  S
C789       C1281   1.529       .  S
C790        H797   1.086       .  S
C790        C791   1.358       .  D
C791       C1309   1.486       .  S
C792        C796   1.540       .  S
C792        C794   1.538       .  S
C792        H798   1.110       .  S
C793        H799   1.085       .  S
C793        C794   1.375       .  D
C794       C1323   1.500       .  S
C795        H800   1.075       .  S
C795        C796   1.362       .  D
C796       C1292   1.474       .  S
C801        C807   1.548       .  S
C801       C1267   1.533       .  S
C802        H809   1.080       .  S
C802        C803   1.364       .  D
C803        C804   1.542       .  S
C803       C1253   1.470       .  S
C804        C806   1.548       .  S
C804        H810   1.110       .  S
C805        H811   1.084       .  S
C805        C806   1.365       .  D
C806       C1351   1.499       .  S
C807        H812   1.083       .  S
C807        C808   1.360       .  D
C808       C1337   1.484       .  S
O813        C823   1.262       .  A
O814        V821   1.888   1_455  S
O814        C824   1.260       .  A
O815        C825   1.265       .  A
O816        V821   1.899       .  S
O816        C826   1.269       .  A
O817        V822   1.906   1_656  S
O817        C826   1.262       .  A
O818        C825   1.266       .  A
O819        V822   1.906   1_556  S
O819        C824   1.269       .  A
O820        C823   1.268       .  A
V821        V822   2.086   1_656  T
C823       C1239   1.479       .  S
C824       C1208   1.482       .  S
C825       C1197   1.480       .  S
C826       C1225   1.483       .  S
C827        C828   1.534       .  S
C827        C833   1.532       .  S
C827        C831   1.556       .  S
C827       C1180   1.549       .  S
C828        H835   1.085       .  S
C828        C829   1.362       .  D
C829        C830   1.532       .  S
C829       C1211   1.478       .  S
C830        C834   1.548       .  S
C830        C832   1.545       .  S
C830        H836   1.108       .  S
C831        H837   1.084       .  S
C831        C832   1.383       .  D
C832       C1194   1.504       .  S
C833        H838   1.086       .  S
C833        C834   1.365       .  D
C834       C1166   1.493       .  S
C839        C840   1.517       .  S
C839        C845   1.524       .  S
C839        C843   1.551       .  S
C839       C1138   1.533       .  S
C840        H847   1.087       .  S
C840        C841   1.362       .  D
C841        C842   1.553       .  S
C841       C1152   1.499       .  S
C842        C846   1.548       .  S
C842        C844   1.534       .  S
C842        H848   1.102       .  S
C843        H849   1.084       .  S
C843        C844   1.384       .  D
C844       C1236   1.496       .  S
C845        H850   1.085       .  S
C845        C846   1.357       .  D
C846       C1222   1.480       .  S
O851        C861   1.263   1_545  A
O852        V859   1.887   1_556  S
O852        C862   1.260   1_545  A
O853        C863   1.267       .  A
O854        V859   1.905   1_456  S
O854        C864   1.266   1_545  A
O855        V860   1.927   1_456  S
O855        C864   1.270       .  A
O856        C863   1.265   1_565  A
O857        V860   1.915   1_556  S
O857        C862   1.270       .  A
O858        C861   1.271       .  A
V859        V860   2.081   1_545  T
C861       C1085   1.490       .  S
C862       C1113   1.487       .  S
C863       C1124   1.482       .  S
C864       C1096   1.500       .  S
C865        C866   1.534   1_545  S
C865        C871   1.538   1_545  S
C865        C869   1.553       .  S
C865       C1068   1.553       .  S
C866        H873   1.085       .  S
C866        C867   1.368       .  D
C867        C868   1.536       .  S
C867       C1054   1.491       .  S
C868        C872   1.532       .  S
C868        C870   1.538       .  S
C868        H874   1.108       .  S
C869        H875   1.083       .  S
C869        C870   1.377   1_545  D
C870       C1082   1.496       .  S
C871        H876   1.081   1_565  S
C871        C872   1.360       .  D
C872       C1099   1.473       .  S
C877        C878   1.534       .  S
C877        C883   1.545       .  S
C877        C881   1.532       .  S
C877       C1043   1.535       .  S
C878        H885   1.082       .  S
C878        C879   1.370       .  D
C879        C880   1.535   1_545  S
C879       C1110   1.488       .  S
C880        C884   1.537       .  S
C880        C882   1.535   1_565  S
C880        H886   1.108       .  S
C881        H887   1.086       .  S
C881        C882   1.362       .  D
C882       C1127   1.470       .  S
C883        H888   1.082       .  S
C883        C884   1.369   1_545  D
C884       C1026   1.483       .  S
N889        C894   1.354       .  A
N889        C893   1.354       .  A
N889        H921   1.039       .  S
N890        C897   1.348       .  A
N890        C898   1.348       .  A
N891        C896   1.355       .  A
N891        C895   1.358       .  A
N891        H922   1.036       .  S
N892        C899   1.359       .  A
N892        C900   1.355       .  A
C893        C901   1.389       .  A
C893        C909   1.418       .  A
C894        C910   1.414       .  A
C894        C902   1.384       .  A
C895        C903   1.386       .  A
C895        C912   1.422       .  A
C896        C911   1.424       .  A
C896        C904   1.389       .  A
C897        C909   1.411       .  A
C897        C905   1.387       .  A
C898        C912   1.412       .  A
C898        C906   1.387       .  A
C899        C907   1.383       .  A
C899        C910   1.419       .  A
C900        C908   1.389       .  A
C900        C911   1.426       .  A
C901        C902   1.373       .  A
C901        H913   1.082       .  S
C902        H914   1.082       .  S
C903        C904   1.373       .  A
C903        H915   1.082       .  S
C904        H916   1.080       .  S
C905        C906   1.376       .  A
C905        H917   1.082       .  S
C906        H918   1.083       .  S
C907        C908   1.373       .  A
C907        H919   1.081       .  S
C908        H920   1.082       .  S
C909       C1264   1.480       .  S
C910       C1141   1.507       .  S
C911       C1040   1.493       .  S
C912       C1365   1.489       .  S
N923        C928   1.351       .  A
N923        C927   1.356       .  A
N923        H955   1.037       .  S
N924        C931   1.350       .  A
N924        C932   1.347       .  A
N925        C930   1.353       .  A
N925        C929   1.348       .  A
N925        H956   1.038       .  S
N926        C933   1.349       .  A
N926        C934   1.353       .  A
C927        C935   1.385       .  A
C927        C943   1.416       .  A
C928        C944   1.420       .  A
C928        C936   1.390       .  A
C929        C937   1.389       .  A
C929        C946   1.412       .  A
C930        C945   1.413       .  A
C930        C938   1.388       .  A
C931        C943   1.408       .  A
C931        C939   1.386       .  A
C932        C946   1.405       .  A
C932        C940   1.386       .  A
C933        C941   1.388       .  A
C933        C944   1.415       .  A
C934        C942   1.384       .  A
C934        C945   1.412       .  A
C935        C936   1.378       .  A
C935        H947   1.082       .  S
C936        H948   1.082       .  S
C937        C938   1.371       .  A
C937        H949   1.083       .  S
C938        H950   1.082       .  S
C939        C940   1.373       .  A
C939        H951   1.082       .  S
C940        H952   1.082       .  S
C941        C942   1.374       .  A
C941        H953   1.082       .  S
C942        H954   1.082       .  S
C943       C1155   1.490       .  S
C944       C1250   1.479       .  S
C945       C1376   1.487       .  S
C946       C1029   1.469       .  S
N957        C962   1.356       .  A
N957        C961   1.356       .  A
N957        H989   1.039       .  S
N958        C965   1.346       .  A
N958        C966   1.347       .  A
N959        C964   1.350       .  A
N959        C963   1.352       .  A
N959        H990   1.040       .  S
N960        C967   1.351       .  A
N960        C968   1.352       .  A
C961        C969   1.387       .  A
C961        C977   1.421       .  A
C962        C978   1.418       .  A
C962        C970   1.385       .  A
C963        C971   1.386       .  A
C963        C980   1.411       .  A
C964        C979   1.413       .  A
C964        C972   1.388       .  A
C965        C977   1.407       .  A
C965        C973   1.387       .  A
C966        C980   1.406       .  A
C966        C974   1.387       .  A
C967        C975   1.387       .  A
C967        C978   1.414       .  A
C968        C976   1.386       .  A
C968        C979   1.414       .  A
C969        C970   1.378       .  A
C969        H981   1.082       .  S
C970        H982   1.082       .  S
C971        C972   1.376       .  A
C971        H983   1.082       .  S
C972        H984   1.083       .  S
C973        C974   1.376       .  A
C973        H985   1.082   1_556  S
C974        H986   1.083       .  S
C975        C976   1.379       .  A
C975        H987   1.082       .  S
C976        H988   1.082       .  S
C977       C1407   1.484       .  S
C978       C1071   1.494       .  S
C979       C1183   1.491       .  S
C980       C1278   1.476       .  S
N991        C996   1.353       .  A
N991        C995   1.355       .  A
N991       H1023   1.037       .  S
N992        C999   1.355       .  A
N992       C1000   1.354       .  A
N993        C998   1.362       .  A
N993        C997   1.360       .  A
N993       H1024   1.037       .  S
N994       C1001   1.355       .  A
N994       C1002   1.356       .  A
C995       C1003   1.388       .  A
C995       C1011   1.419       .  A
C996       C1012   1.416       .  A
C996       C1004   1.388       .  A
C997       C1005   1.389       .  A
C997       C1014   1.432       .  A
C998       C1013   1.429       .  A
C998       C1006   1.385       .  A
C999       C1011   1.418       .  A
C999       C1007   1.385       .  A
C1000      C1014   1.422       .  A
C1000      C1008   1.387       .  A
C1001      C1009   1.384       .  A
C1001      C1012   1.415       .  A
C1002      C1010   1.387       .  A
C1002      C1013   1.421       .  A
C1003      C1004   1.373       .  A
C1003      H1015   1.082       .  S
C1004      H1016   1.083       .  S
C1005      C1006   1.378       .  A
C1005      H1017   1.081       .  S
C1006      H1018   1.082       .  S
C1007      C1008   1.376       .  A
C1007      H1019   1.082       .  S
C1008      H1020   1.082       .  S
C1009      C1010   1.373       .  A
C1009      H1021   1.082       .  S
C1010      H1022   1.082       .  S
C1011      C1169   1.495       .  S
C1012      C1295   1.486       .  S
C1013      C1390   1.514       .  S
C1014      C1057   1.505       .  S
C1025      C1026   1.410       .  A
C1025      C1030   1.404       .  A
C1025      H1032   1.083       .  S
C1026      C1027   1.417       .  A
C1027      C1028   1.389       .  A
C1027      N1034   1.427       .  S
C1028      C1029   1.389       .  A
C1028      H1033   1.085       .  S
C1029      C1030   1.401       .  A
C1030      N1031   1.430       .  S
N1031      O1035   1.262       .  A
N1031      O1036   1.262       .  A
N1034      O1038   1.262       .  A
N1034      O1037   1.262       .  A
C1039      C1040   1.397       .  A
C1039      C1044   1.395       .  A
C1039      H1046   1.085       .  S
C1040      C1041   1.413       .  A
C1041      C1042   1.401       .  A
C1041      N1048   1.429       .  S
C1042      C1043   1.408       .  A
C1042      H1047   1.081       .  S
C1043      C1044   1.423       .  A
C1044      N1045   1.430       .  S
N1045      O1049   1.262       .  A
N1045      O1050   1.262       .  A
N1048      O1052   1.262       .  A
N1048      O1051   1.262       .  A
C1053      C1054   1.396       .  A
C1053      C1058   1.396       .  A
C1053      H1060   1.084       .  S
C1054      C1055   1.413       .  A
C1055      C1056   1.411       .  A
C1055      N1062   1.428       .  S
C1056      C1057   1.411       .  A
C1056      H1061   1.084       .  S
C1057      C1058   1.414       .  A
C1058      N1059   1.425       .  S
N1059      O1063   1.262       .  A
N1059      O1064   1.262       .  A
N1062      O1066   1.262       .  A
N1062      O1065   1.260       .  A
C1067      C1068   1.420       .  A
C1067      C1072   1.403       .  A
C1067      H1074   1.075       .  S
C1068      C1069   1.420       .  A
C1069      C1070   1.410       .  A
C1069      N1076   1.429       .  S
C1070      C1071   1.402       .  A
C1070      H1075   1.083       .  S
C1071      C1072   1.401       .  A
C1072      N1073   1.430       .  S
N1073      O1077   1.262       .  A
N1073      O1078   1.262       .  A
N1076      O1080   1.262       .  A
N1076      O1079   1.260       .  A
C1081      C1082   1.402       .  A
C1081      C1086   1.399       .  A
C1081      H1088   1.083       .  S
C1082      C1083   1.411   1_565  A
C1083      C1084   1.409       .  A
C1083      N1090   1.427       .  S
C1084      C1085   1.409   1_545  A
C1084      H1089   1.084       .  S
C1085      C1086   1.413       .  A
C1086      N1087   1.427       .  S
N1087      O1091   1.262       .  A
N1087      O1092   1.262       .  A
N1090      O1094   1.262       .  A
N1090      O1093   1.261       .  A
C1095      C1096   1.418       .  A
C1095      C1100   1.416       .  A
C1095      H1102   1.083       .  S
C1096      C1097   1.420       .  A
C1097      C1098   1.393       .  A
C1097      N1104   1.427   1_565  S
C1098      C1099   1.391       .  A
C1098      H1103   1.085   1_565  S
C1099      C1100   1.400       .  A
C1100      N1101   1.430       .  S
N1101      O1105   1.262       .  A
N1101      O1106   1.262       .  A
N1104      O1108   1.262       .  A
N1104      O1107   1.262       .  A
C1109      C1110   1.399       .  A
C1109      C1114   1.386       .  A
C1109      H1116   1.083       .  S
C1110      C1111   1.415   1_545  A
C1111      C1112   1.407       .  A
C1111      N1118   1.428       .  S
C1112      C1113   1.406       .  A
C1112      H1117   1.083       .  S
C1113      C1114   1.416   1_565  A
C1114      N1115   1.428       .  S
N1115      O1119   1.262       .  A
N1115      O1120   1.262       .  A
N1118      O1122   1.262       .  A
N1118      O1121   1.262       .  A
C1123      C1124   1.408       .  A
C1123      C1128   1.406       .  A
C1123      H1130   1.083       .  S
C1124      C1125   1.417       .  A
C1125      C1126   1.397       .  A
C1125      N1132   1.427   1_545  S
C1126      C1127   1.393       .  A
C1126      H1131   1.084       .  S
C1127      C1128   1.402       .  A
C1128      N1129   1.428       .  S
N1129      O1133   1.262       .  A
N1129      O1134   1.262       .  A
N1132      O1136   1.262   1_565  A
N1132      O1135   1.262       .  A
C1137      C1138   1.403       .  A
C1137      C1142   1.403       .  A
C1137      H1144   1.081       .  S
C1138      C1139   1.422       .  A
C1139      C1140   1.401       .  A
C1139      N1146   1.434       .  S
C1140      C1141   1.407       .  A
C1140      H1145   1.084       .  S
C1141      C1142   1.416       .  A
C1142      N1143   1.427       .  S
N1143      O1147   1.262       .  A
N1143      O1148   1.262       .  A
N1146      O1150   1.262       .  A
N1146      O1149   1.262       .  A
C1151      C1152   1.406       .  A
C1151      C1156   1.397       .  A
C1151      H1158   1.084       .  S
C1152      C1153   1.418       .  A
C1153      C1154   1.406       .  A
C1153      N1160   1.427       .  S
C1154      C1155   1.401       .  A
C1154      H1159   1.084       .  S
C1155      C1156   1.407       .  A
C1156      N1157   1.427       .  S
N1157      O1161   1.262       .  A
N1157      O1162   1.262       .  A
N1160      O1164   1.262       .  A
N1160      O1163   1.262       .  A
C1165      C1166   1.408       .  A
C1165      C1170   1.406       .  A
C1165      H1172   1.084       .  S
C1166      C1167   1.410       .  A
C1167      C1168   1.404       .  A
C1167      N1174   1.427       .  S
C1168      C1169   1.403       .  A
C1168      H1173   1.084       .  S
C1169      C1170   1.407       .  A
C1170      N1171   1.429       .  S
N1171      O1175   1.262       .  A
N1171      O1176   1.262       .  A
N1174      O1178   1.262       .  A
N1174      O1177   1.261       .  A
C1179      C1180   1.421       .  A
C1179      C1184   1.420       .  A
C1179      H1186   1.081       .  S
C1180      C1181   1.425       .  A
C1181      C1182   1.388       .  A
C1181      N1188   1.429       .  S
C1182      C1183   1.390       .  A
C1182      H1187   1.085       .  S
C1183      C1184   1.407       .  A
C1184      N1185   1.431       .  S
N1185      O1189   1.261       .  A
N1185      O1190   1.263       .  A
N1188      O1192   1.262       .  A
N1188      O1191   1.262       .  A
C1193      C1194   1.404       .  A
C1193      C1198   1.405       .  A
C1193      H1200   1.084       .  S
C1194      C1195   1.423       .  A
C1195      C1196   1.402       .  A
C1195      N1202   1.427       .  S
C1196      C1197   1.394       .  A
C1196      H1201   1.085       .  S
C1197      C1198   1.413       .  A
C1198      N1199   1.427       .  S
N1199      O1203   1.262       .  A
N1199      O1204   1.262       .  A
N1202      O1206   1.262       .  A
N1202      O1205   1.262       .  A
C1207      C1208   1.405       .  A
C1207      C1212   1.400       .  A
C1207      H1214   1.084       .  S
C1208      C1209   1.417       .  A
C1209      C1210   1.391       .  A
C1209      N1216   1.429       .  S
C1210      C1211   1.398       .  A
C1210      H1215   1.085       .  S
C1211      C1212   1.408       .  A
C1212      N1213   1.426       .  S
N1213      O1217   1.262       .  A
N1213      O1218   1.262       .  A
N1216      O1220   1.262       .  A
N1216      O1219   1.262       .  A
C1221      C1222   1.397       .  A
C1221      C1226   1.405       .  A
C1221      H1228   1.084       .  S
C1222      C1223   1.417       .  A
C1223      C1224   1.392       .  A
C1223      N1230   1.432       .  S
C1224      C1225   1.399       .  A
C1224      H1229   1.084       .  S
C1225      C1226   1.419       .  A
C1226      N1227   1.427       .  S
N1227      O1231   1.262       .  A
N1227      O1232   1.262       .  A
N1230      O1234   1.262       .  A
N1230      O1233   1.262       .  A
C1235      C1236   1.402       .  A
C1235      C1240   1.396       .  A
C1235      H1242   1.084       .  S
C1236      C1237   1.426       .  A
C1237      C1238   1.401       .  A
C1237      N1244   1.430       .  S
C1238      C1239   1.396       .  A
C1238      H1243   1.084       .  S
C1239      C1240   1.413       .  A
C1240      N1241   1.427       .  S
N1241      O1245   1.262       .  A
N1241      O1246   1.262       .  A
N1244      O1248   1.262       .  A
N1244      O1247   1.262       .  A
C1249      C1250   1.399       .  A
C1249      C1254   1.397       .  A
C1249      H1256   1.084       .  S
C1250      C1251   1.410       .  A
C1251      C1252   1.393       .  A
C1251      N1258   1.427       .  S
C1252      C1253   1.397       .  A
C1252      H1257   1.085       .  S
C1253      C1254   1.413       .  A
N1255      O1259   1.262       .  A
N1255      O1260   1.262       .  A
N1258      O1262   1.262       .  A
N1258      O1261   1.262       .  A
C1263      C1264   1.397       .  A
C1263      C1268   1.402       .  A
C1263      H1270   1.084       .  S
C1264      C1265   1.404       .  A
C1265      C1266   1.390       .  A
C1265      N1272   1.427       .  S
C1266      C1267   1.408       .  A
C1266      H1271   1.078       .  S
C1267      C1268   1.424       .  A
C1268      N1269   1.429   1_556  S
N1269      O1273   1.262       .  A
N1269      O1274   1.262       .  A
N1272      O1276   1.262       .  A
N1272      O1275   1.262       .  A
C1277      C1278   1.398       .  A
C1278      C1279   1.402       .  A
C1279      C1280   1.389       .  A
C1279      N1286   1.427       .  S
C1280      C1281   1.410       .  A
C1280      H1285   1.083       .  S
C1282      N1283   1.426       .  S
N1283      O1287   1.263       .  A
N1283      O1288   1.262       .  A
N1286      O1290   1.262       .  A
N1286      O1289   1.262       .  A
C1291      C1292   1.397       .  A
C1291      C1296   1.395       .  A
C1291      H1298   1.082       .  S
C1292      C1293   1.411       .  A
C1293      C1294   1.400       .  A
C1294      C1295   1.399       .  A
C1295      C1296   1.410       .  A
C1296      N1297   1.426       .  S
N1297      O1301   1.262       .  A
N1297      O1302   1.262       .  A
N1300      O1304   1.262       .  A
N1300      O1303   1.262       .  A
C1305      C1306   1.418       .  A
C1305      C1310   1.415       .  A
C1305      H1312   1.083       .  S
C1306      C1307   1.418       .  A
C1307      C1308   1.390       .  A
C1307      N1314   1.427       .  S
C1308      C1309   1.396       .  A
C1308      H1313   1.084       .  S
C1309      C1310   1.404       .  A
C1310      N1311   1.428       .  S
N1311      O1315   1.261       .  A
N1311      O1316   1.262       .  A
N1314      O1318   1.262       .  A
N1314      O1317   1.262       .  A
C1319      C1320   1.411       .  A
C1319      C1324   1.413       .  A
C1319      H1326   1.083       .  S
C1320      C1321   1.411       .  A
C1321      C1322   1.399       .  A
C1321      N1328   1.429       .  S
C1322      C1323   1.402       .  A
C1322      H1327   1.078       .  S
C1323      C1324   1.413       .  A
C1324      N1325   1.428       .  S
N1325      O1329   1.261       .  A
N1328      O1332   1.262       .  A
N1328      O1331   1.262       .  A
C1333      C1334   1.400       .  A
C1333      C1338   1.405       .  A
C1333      H1340   1.084       .  S
C1334      C1335   1.413       .  A
C1335      C1336   1.398       .  A
C1335      N1342   1.428       .  S
C1336      C1337   1.398       .  A
C1336      H1341   1.084       .  S
C1337      C1338   1.415       .  A
C1338      N1339   1.427       .  S
N1339      O1343   1.262       .  A
N1339      O1344   1.262       .  A
N1342      O1346   1.262       .  A
N1342      O1345   1.262       .  A
C1347      C1348   1.400       .  A
C1347      C1352   1.400       .  A
C1347      H1354   1.084       .  S
C1348      C1349   1.416       .  A
C1349      C1350   1.404       .  A
C1349      N1356   1.427       .  S
C1350      C1351   1.404       .  A
C1350      H1355   1.083       .  S
C1351      C1352   1.419       .  A
C1352      N1353   1.428       .  S
N1353      O1357   1.262       .  A
N1353      O1358   1.262       .  A
N1356      O1360   1.262       .  A
N1356      O1359   1.262       .  A
C1361      C1362   1.408       .  A
C1361      C1366   1.393       .  A
C1361      H1368   1.081       .  S
C1362      C1363   1.426       .  A
C1363      C1364   1.406       .  A
C1364      C1365   1.399       .  A
C1364      H1369   1.084       .  S
C1365      C1366   1.405       .  A
C1366      N1367   1.427       .  S
N1367      O1371   1.262       .  A
N1367      O1372   1.262       .  A
N1370      O1374   1.262       .  A
N1370      O1373   1.262       .  A
C1375      C1376   1.399       .  A
C1376      C1377   1.412       .  A
C1377      C1378   1.398       .  A
C1377      N1384   1.427       .  S
C1378      C1379   1.398       .  A
C1378      H1383   1.084       .  S
C1380      N1381   1.428       .  S
N1381      O1385   1.262       .  A
N1381      O1386   1.262       .  A
N1384      O1388   1.262       .  A
N1384      O1387   1.262       .  A
C1389      C1390   1.407       .  A
C1389      C1394   1.409       .  A
C1389      H1396   1.084       .  S
C1390      C1391   1.418       .  A
C1391      C1392   1.402       .  A
C1391      N1398   1.427       .  S
C1392      C1393   1.403       .  A
C1392      H1397   1.080       .  S
C1393      C1394   1.426       .  A
C1394      N1395   1.434       .  S
N1395      O1399   1.262       .  A
N1395      O1400   1.262       .  A
N1398      O1402   1.262       .  A
N1398      O1401   1.262       .  A
C1403      C1404   1.403   1_556  A
C1403      C1408   1.398       .  A
C1403      H1410   1.074       .  S
C1405      N1412   1.429       .  S
C1406      C1407   1.394   1_554  A
C1407      C1408   1.408       .  A
C1408      N1409   1.427       .  S
N1409      O1413   1.262       .  A
N1409      O1414   1.262       .  A
N1412      O1416   1.262       .  A
N1412      O1415   1.262       .  A
C1417      C1418   1.398       .  A
C1417      C1422   1.402       .  A
C1417      H1424   1.083       .  S
C1418      C1419   1.406       .  A
C1419      C1420   1.389   1_545  A
C1419      N1426   1.425       .  S
C1420      C1421   1.399       .  A
C1420      H1425   1.085       .  S
C1421      C1422   1.416   1_565  A
C1422      N1423   1.428       .  S
N1423      O1427   1.262       .  A
N1426      O1430   1.262   1_545  A
N1426      O1429   1.262       .  A
C1431      C1432   1.397       .  A
C1431      C1436   1.397       .  A
C1431      H1438   1.084       .  S
C1432      C1433   1.409   1_565  A
C1433      C1434   1.403       .  A
C1433      N1440   1.429       .  S
C1434      C1435   1.406   1_545  A
C1434      H1439   1.076       .  S
C1435      C1436   1.417       .  A
C1436      N1437   1.425       .  S
N1437      O1441   1.261       .  A
N1437      O1442   1.259       .  A
N1440      O1444   1.261       .  A
N1440      O1443   1.260       .  A
C1445      C1446   1.398       .  A
C1445      C1450   1.398       .  A
C1445      H1452   1.085       .  S
C1446      C1447   1.414   1_545  A
C1447      C1448   1.407       .  A
C1447      N1454   1.427       .  S
C1448      C1449   1.406   1_565  A
C1448      H1453   1.084       .  S
C1449      C1450   1.417       .  A
C1450      N1451   1.427       .  S
N1451      O1455   1.262       .  A
N1451      O1456   1.262       .  A
N1454      O1458   1.262       .  A
N1454      O1457   1.262       .  A
C1459      C1460   1.405       .  A
C1459      C1464   1.399   1_545  A
C1459      H1466   1.082   1_545  S
C1460      C1461   1.422       .  A
C1461      C1462   1.404       .  A
C1461      N1468   1.427       .  S
C1462      C1463   1.400       .  A
C1462      H1467   1.084       .  S
C1463      C1464   1.413   1_545  A
C1464      N1465   1.428       .  S
N1465      O1469   1.262       .  A
N1465      O1470   1.262       .  A
N1468      O1472   1.262       .  A
N1468      O1471   1.262       .  A
