geometry optimzed in LAMMPS
_audit_creation_date              2020-12-01 
_audit_creation_method            'lammps2cif' 
_symmetry_space_group_name_H-M    'P1' 
_symmetry_Int_Tables_number       1 
_symmetry_cell_setting            triclinic 
loop_ 
_symmetry_equiv_pos_as_xyz 
  x,y,z 
_cell_length_a                    37.8083164 
_cell_length_b                    29.904460362298884 
_cell_length_c                    25.22979467411999 
_cell_angle_alpha                 90.275692577091 
_cell_angle_beta                  90.27727998467681 
_cell_angle_gamma                 89.65726675380598 
loop_ 
_atom_site_label 
_atom_site_type_symbol 
_atom_site_fract_x 
_atom_site_fract_y 
_atom_site_fract_z 
_atom_site_charge 
O1          O  0.47170227  0.50104224  0.18398482    -0.73300
O2          O  0.54111442  0.45439135  0.29093730    -0.74300
O3          O  0.46513161  0.44978330  0.27857757    -0.62900
O4          O  0.54541120  0.50625582  0.19716299    -0.71400
O5          O  0.53876451  0.07991521  0.23909552    -0.70900
O6          O  0.45889309  0.02078455  0.31641011    -0.62200
O7          O  0.53427755  0.02601833  0.33156990    -0.74700
O8          O  0.46426233  0.07261562  0.22358795    -0.73400
Cu9        Cu  0.50602827  0.47553924  0.23620285     1.04600
Cu10       Cu  0.49879920  0.05191346  0.27958350     1.04300
C11         C  0.45790567  0.53990745  0.18891468     0.92900
C12         C  0.55046803  0.98883427  0.32368156     0.92000
C13         C  0.44844210  0.47400546  0.31226040     0.84100
C14         C  0.55429358  0.05815109  0.20225807     0.90400
C15         C  0.35218757  0.02691742  0.02939921     0.86100
C16         C  0.36658418  0.49142971  0.49641369    -0.54100
C17         C  0.34393337  0.47121772  0.46148366     0.09000
C18         C  0.30483049  0.48694958  0.46915569     0.20000
C19         C  0.33369671  0.05792853  0.99055111    -0.54900
C20         C  0.31000633  0.03840496  0.46429655     0.09100
C21         C  0.32675398  0.50212570  0.06165683    -0.54400
C22         C  0.30275445  0.47940699  0.03140378     0.09700
H23         H  0.39471130  0.48436566  0.49622718     0.14200
H24         H  0.28551385  0.46970786  0.44296627    -0.00100
H25         H  0.34006985  0.09302445  0.98762602     0.14500
H26         H  0.32814501  0.49784659  0.10431494     0.14300
C27         C  0.66094954  0.04980959  0.05962435     0.86100
C28         C  0.68507442  0.51167871  0.08227689    -0.54100
C29         C  0.70219058  0.48561121  0.04616900     0.09000
C30         C  0.69339145  0.99855929  0.48646777     0.20000
C31         C  0.68545600  0.07556978  0.02250618    -0.54900
C32         C  0.69972801  0.04981852  0.48122297     0.09100
C33         C  0.63666574  0.02274501  0.02289211    -0.54400
C34         C  0.65181543  0.49481957  0.48813106     0.09700
H35         H  0.68735594  0.50473888  0.12426752     0.14200
H36         H  0.70605502  0.47674583  0.45951460    -0.00100
H37         H  0.68883297  0.11132091  0.02542187     0.14500
H38         H  0.60796144  0.02021749  0.52604286     0.14300
O39         O  0.46147702  0.29918120  0.27941359    -0.73300
O40         O  0.52799430  0.25334563  0.16817606    -0.74300
O41         O  0.45519514  0.24633976  0.18640151    -0.62900
O42         O  0.53739272  0.30508671  0.26169461    -0.71400
O43         O  0.54623012  0.24129740  0.30456230    -0.70900
O44         O  0.46347584  0.18371821  0.23207882    -0.62200
O45         O  0.53742841  0.19004487  0.21189351    -0.74700
O46         O  0.47078671  0.23710015  0.32544062    -0.73400
Cu47       Cu  0.49519153  0.27825193  0.22261628     1.04600
Cu48       Cu  0.50472557  0.21101524  0.27053069     1.04300
C49         C  0.45458140  0.27453086  0.31913680     0.92900
C50         C  0.54292513  0.21509297  0.17185774     0.92000
C51         C  0.44698602  0.20587432  0.19660690     0.84100
C52         C  0.55600713  0.28088923  0.29303464     0.90400
C53         C  0.34193084  0.21226193  0.05403600     0.86100
C54         C  0.31921580  0.24894771  0.07861270    -0.54100
C55         C  0.30198362  0.27585350  0.04350169     0.09000
C56         C  0.31066910  0.26491478  0.48239443     0.20000
C57         C  0.31701756  0.18661452  0.01742679    -0.54900
C58         C  0.30247262  0.21389051  0.47725090     0.09100
C59         C  0.36844927  0.24018904  0.51330870    -0.54400
C60         C  0.35158688  0.26687205  0.47749310     0.09700
H61         H  0.31860866  0.25583629  0.12079998     0.14200
H62         H  0.29637131  0.28631032  0.45342614    -0.00100
H63         H  0.31318180  0.15095469  0.02055449     0.14500
H64         H  0.39702238  0.23714538  0.51388348     0.14300
C65         C  0.64837820  0.23342947  0.01726471     0.86100
C66         C  0.63241780  0.26858511  0.47078543    -0.54100
C67         C  0.65802290  0.28788070  0.44061815     0.09000
C68         C  0.69603035  0.27290995  0.45653439     0.20000
C69         C  0.67084988  0.20114877  0.98457259    -0.54900
C70         C  0.69442119  0.22097202  0.45032013     0.09100
C71         C  0.67418568  0.26153421  0.04908880    -0.54400
C72         C  0.69936533  0.28333050  0.02091535     0.09700
H73         H  0.60477848  0.27481998  0.46229492     0.14200
H74         H  0.71708181  0.28913421  0.43303815    -0.00100
H75         H  0.66503140  0.16586485  0.98207129     0.14500
H76         H  0.67067211  0.26689247  0.09130597     0.14300
O77         O  0.96885871  0.22421199  0.41763072    -0.73300
O78         O  0.04854019  0.20667082  0.02240003    -0.74300
O79         O  0.97566405  0.17967510  0.01612708    -0.62900
O80         O  0.04167406  0.25118777  0.42382764    -0.71400
O81         O  0.02628143  0.31501639  0.46313983    -0.70900
O82         O  0.95984577  0.24321285  0.05579816    -0.62200
O83         O  0.03231757  0.26997107  0.06185590    -0.74700
O84         O  0.95316732  0.28839331  0.45550140    -0.73400
Cu85       Cu  0.00923178  0.21363480  0.46793500     1.04600
Cu86       Cu  0.99218448  0.28182145  0.50948700     1.04300
C87         C  0.94770038  0.25762952  0.42119070     0.92900
C88         C  0.05375556  0.23691113  0.05741268     0.92000
C89         C  0.95638444  0.20107186  0.04904784     0.84100
C90         C  0.04550384  0.29332387  0.43038483     0.90400
C91         C  0.15913110  0.29040248  0.29925915     0.86100
C92         C  0.18306755  0.25585924  0.32479669    -0.54100
C93         C  0.20334240  0.23151800  0.29049551     0.09000
C94         C  0.19807513  0.24571310  0.23071029     0.20000
C95         C  0.18424825  0.31941635  0.26660583    -0.54900
C96         C  0.20377425  0.29704822  0.22913422     0.09100
C97         C  0.13826910  0.26202109  0.25897140    -0.54400
C98         C  0.15781683  0.24127725  0.22098371     0.09700
H99         H  0.18226845  0.24826231  0.36667167     0.14200
H100        H  0.21429351  0.22631934  0.20201386    -0.00100
H101        H  0.18664660  0.35467542  0.27341389     0.14500
H102        H  0.10958898  0.26234152  0.25613337     0.14300
C103        C  0.84269720  0.20645049  0.17970335     0.86100
C104        C  0.86315989  0.23487771  0.22014335    -0.54100
C105        C  0.84330463  0.25523592  0.25786879     0.09000
C106        C  0.80308928  0.25161634  0.24656611     0.20000
C107        C  0.81731452  0.17725521  0.21221986    -0.54900
C108        C  0.79619200  0.20064786  0.24696006     0.09100
C109        C  0.81905267  0.24140154  0.15321335    -0.54400
C110        C  0.79885591  0.26615681  0.18720296     0.09700
H111        H  0.89180019  0.23534186  0.22290553     0.14200
H112        H  0.78667628  0.27124536  0.27479552    -0.00100
H113        H  0.81771573  0.14095409  0.21033393     0.14500
H114        H  0.82012668  0.24910413  0.11130231     0.14300
O115        O  0.03896149  0.00092822  0.43531864    -0.73300
O116        O  0.96105964  0.04453767  0.03485176    -0.74300
O117        O  0.03724663  0.04977873  0.03347354    -0.62900
O118        O  0.96527937  0.99651380  0.43666262    -0.71400
O119        O  0.96702081  0.43283942  0.48361964    -0.70900
O120        O  0.04093692  0.48795250  0.07418296    -0.62200
O121        O  0.96478837  0.48296361  0.07492975    -0.74700
O122        O  0.04210889  0.43740725  0.47916673    -0.73400
Cu123      Cu  0.00138021  0.02602684  0.48252731     1.04600
Cu124      Cu  0.00485230  0.45785433  0.53109600     1.04300
C125        C  0.05147075  0.46271029  0.44116120     0.92900
C126        C  0.95040338  0.52129387  0.06793226     0.92000
C127        C  0.05213872  0.52755957  0.06593850     0.84100
C128        C  0.95406310  0.45659512  0.44634468     0.90400
C129        C  0.15618412  0.47732758  0.28756280     0.86100
C130        C  0.13711454  0.51336287  0.25526840    -0.54100
C131        C  0.15729831  0.53505054  0.21868699     0.09000
C132        C  0.19712876  0.52189220  0.22264495     0.20000
C133        C  0.17439923  0.44822851  0.24617630    -0.54900
C134        C  0.19708478  0.47037871  0.21378756     0.09100
C135        C  0.18673224  0.00051367  0.31501029    -0.54400
C136        C  0.20739587  0.02628661  0.28320860     0.09700
H137        H  0.10874427  0.51816426  0.25754543     0.14200
H138        H  0.21444487  0.04166333  0.19696582    -0.00100
H139        H  0.16845327  0.41343419  0.24087782     0.14500
H140        H  0.18914354  0.00231833  0.35781610     0.14300
C141        C  0.84663891  0.46241479  0.29856433     0.86100
C142        C  0.81913393  0.99243271  0.32542845    -0.54100
C143        C  0.79818180  0.01629936  0.29164993     0.09000
C144        C  0.80556257  0.00528632  0.23186864     0.20000
C145        C  0.82279260  0.43280205  0.26407670    -0.54900
C146        C  0.80209160  0.45576634  0.22854641     0.09100
C147        C  0.86570182  0.99232783  0.26187435    -0.54400
C148        C  0.84564470  0.01452835  0.22548843     0.09700
H149        H  0.81923032  0.99960264  0.36753935     0.14200
H150        H  0.78856150  0.02397315  0.20351806    -0.00100
H151        H  0.82363756  0.39651412  0.26563387     0.14500
H152        H  0.89426863  0.99518233  0.26226786     0.14300
O153        O  0.74866496  0.09008103  0.44497279    -0.73300
O154        O  0.79191066  0.17025884  0.33386805    -0.74300
O155        O  0.74775950  0.18317304  0.42549890    -0.62900
O156        O  0.79297653  0.07682386  0.35289796    -0.71400
O157        O  0.74785065  0.06708396  0.29780544    -0.70900
O158        O  0.70023518  0.17171351  0.37547940    -0.62200
O159        O  0.74557727  0.16122272  0.28098024    -0.74700
O160        O  0.70292351  0.07753268  0.39176066    -0.73400
Cu161      Cu  0.77197622  0.13037488  0.39067454     1.04600
Cu162      Cu  0.72243002  0.11931697  0.33455548     1.04300
C163        C  0.71846666  0.07225747  0.43664661     0.92900
C164        C  0.77645744  0.17718602  0.28952672     0.92000
C165        C  0.71565775  0.19226596  0.41390526     0.84100
C166        C  0.77860965  0.05557739  0.31418411     0.90400
O167        O  0.79490646  0.32615903  0.12584402    -0.73300
O168        O  0.75008025  0.43126723  0.04926329    -0.74300
O169        O  0.79633829  0.42104357  0.14236063    -0.62900
O170        O  0.74898035  0.33503810  0.03521137    -0.71400
O171        O  0.70649820  0.33156214  0.09490678    -0.70900
O172        O  0.75138967  0.41601717  0.19799648    -0.62200
O173        O  0.70648811  0.42557163  0.10718154    -0.74700
O174        O  0.75175214  0.32143078  0.18464135    -0.73400
Cu175      Cu  0.77433488  0.37878658  0.08629236     1.04600
Cu176      Cu  0.72737715  0.37368269  0.14761488     1.04300
C177        C  0.78094457  0.30686859  0.16588372     0.92900
C178        C  0.72038245  0.44494047  0.06712562     0.92000
C179        C  0.78191476  0.43100570  0.18698360     0.84100
C180        C  0.71956655  0.31872399  0.05058981     0.90400
O181        O  0.30246191  0.08291193  0.38606824    -0.73300
O182        O  0.25240821  0.17860678  0.29695773    -0.74300
O183        O  0.29837685  0.17907009  0.39079731    -0.62900
O184        O  0.25492332  0.08115275  0.29415241    -0.71400
O185        O  0.21103389  0.07981752  0.35186411    -0.70900
O186        O  0.25305591  0.17301812  0.44569654    -0.62200
O187        O  0.20857548  0.17397617  0.35453298    -0.74700
O188        O  0.25698293  0.07811316  0.44083124    -0.73400
Cu189      Cu  0.27869396  0.13055652  0.33973634     1.04600
Cu190      Cu  0.23078377  0.12617488  0.39944693     1.04300
C191        C  0.28824360  0.06624748  0.42752562     0.92900
C192        C  0.22232252  0.19212401  0.31358776     0.92000
C193        C  0.28293547  0.18985779  0.43443603     0.84100
C194        C  0.22555641  0.06465588  0.30984349     0.90400
O195        O  0.25326115  0.33939692  0.19925779    -0.73300
O196        O  0.29680788  0.42789259  0.10139484    -0.74300
O197        O  0.25061568  0.43331969  0.18964138    -0.62900
O198        O  0.29780259  0.33387631  0.10772885    -0.71400
O199        O  0.25450800  0.33048544  0.04837490    -0.70900
O200        O  0.20485376  0.42734152  0.13472271    -0.62200
O201        O  0.25279497  0.42755610  0.04340800    -0.73100
O202        O  0.20887059  0.33185161  0.14247363    -0.73400
Cu203      Cu  0.27629483  0.38376566  0.15070998     1.04600
Cu204      Cu  0.22860354  0.37918146  0.08998392     1.04300
C205        C  0.22338408  0.32255385  0.18747985     0.92900
C206        C  0.28279250  0.44288241  0.05882150     0.92000
C207        C  0.21911433  0.44427576  0.17625353     0.84100
C208        C  0.28408707  0.31611023  0.06610084     0.90400
C209        C  0.08228712  0.54404953  0.09762755    -0.05900
C210        C  0.11671143  0.53052100  0.08422692    -0.33300
C211        C  0.14470790  0.53518963  0.12055261     0.36000
C212        C  0.13811555  0.55318475  0.17137652    -0.06200
C213        C  0.10517548  0.57427950  0.18019975    -0.33200
C214        C  0.07685782  0.56754122  0.14512838     0.35900
H215        H  0.12131886  0.51315083  0.04720109     0.16200
O216        O  0.17698317  0.51702696  0.10817297    -0.60700
H217        H  0.09978638  0.58979794  0.21824648     0.16200
O218        O  0.04354070  0.58116612  0.15941447    -0.60800
H219        H  0.03435823  0.55676139  0.18191785     0.43200
H220        H  0.19175038  0.54271910  0.09754177     0.43200
C221        C  0.13118891  0.45252386  0.32522011    -0.05900
C222        C  0.14033659  0.44635932  0.37898790    -0.33300
C223        C  0.11412342  0.44541251  0.41805233     0.36000
C224        C  0.07843977  0.44793660  0.40304422    -0.06200
C225        C  0.06938748  0.44357268  0.34937346    -0.33200
C226        C  0.09573097  0.44411409  0.31031696     0.35900
H227        H  0.16769031  0.44602237  0.39166375     0.16200
O228        O  0.12352336  0.44565914  0.47068187    -0.60700
H229        H  0.04183069  0.44242456  0.33757888     0.16200
O230        O  0.08671812  0.43880787  0.25777300    -0.60800
H231        H  0.06721913  0.46029566  0.25042493     0.43200
H232        H  0.13863450  0.47232839  0.47569439     0.43200
C233        C  0.92689462  0.43870596  0.41107557    -0.05900
C234        C  0.89198565  0.43574668  0.42870852    -0.33300
C235        C  0.86405548  0.43460667  0.39180561     0.36000
C236        C  0.87152857  0.43751927  0.33693718    -0.06200
C237        C  0.90660115  0.42869395  0.32091219    -0.33200
C238        C  0.93436862  0.43217607  0.35726205     0.35900
H239        H  0.88623718  0.43816319  0.47066985     0.16200
O240        O  0.82971400  0.43163862  0.40919353    -0.60700
H241        H  0.91301007  0.42498583  0.27933888     0.16200
O242        O  0.96860060  0.43246320  0.33944907    -0.60800
H243        H  0.97674245  0.40099606  0.34127102     0.43200
H244        H  0.82680259  0.45438338  0.43761845     0.43200
C245        C  0.86447531  0.03484097  0.17955988    -0.05900
C246        C  0.89718670  0.05558230  0.18996884    -0.33300
C247        C  0.92505678  0.05255302  0.15374467     0.36000
C248        C  0.91979824  0.53381054  0.10085888    -0.06200
C249        C  0.88616195  0.51733160  0.08774042    -0.33200
C250        C  0.85872847  0.51787117  0.12517439     0.35900
H251        H  0.90282400  0.06831493  0.22937831     0.16200
O252        O  0.95809005  0.06684559  0.16844507    -0.60700
H253        H  0.88194996  0.50088981  0.04987163     0.16200
O254        O  0.82751487  0.49732430  0.11286670    -0.60800
H255        H  0.81299030  0.52051512  0.09498208     0.43200
H256        H  0.96742436  0.04341184  0.19250883     0.43200
C257        C  0.08544671  0.23572552  0.09196788    -0.05900
C258        C  0.09937760  0.27659569  0.10874323    -0.33300
C259        C  0.12666688  0.27843312  0.14591563     0.36000
C260        C  0.14032349  0.23855272  0.16821413    -0.06200
C261        C  0.12826515  0.19726457  0.14866407    -0.33200
C262        C  0.10122699  0.19568599  0.11008807     0.35900
H263        H  0.08804526  0.30772995  0.09456686     0.16200
O264        O  0.13619985  0.31942025  0.16611789    -0.60700
H265        H  0.13798728  0.16642581  0.16594261     0.16200
O266        O  0.08913419  0.15503045  0.09281950    -0.60800
H267        H  0.06517706  0.15217224  0.10817113     0.43200
H268        H  0.14184192  0.33848084  0.13525887     0.43200
C269        C  0.13400815  0.31635583  0.33650310    -0.05900
C270        C  0.10061012  0.32964333  0.31649998    -0.33300
C271        C  0.07047826  0.32624217  0.34819860     0.36000
C272        C  0.07425939  0.31543386  0.40188318    -0.06200
C273        C  0.10815169  0.31531404  0.42467165    -0.33200
C274        C  0.13828451  0.31627257  0.39221634     0.35900
H275        H  0.09699415  0.33527828  0.27443029     0.16200
O276        O  0.03754683  0.32936777  0.32541672    -0.60700
H277        H  0.11128073  0.31009954  0.46692843     0.16200
O278        O  0.17150448  0.31694367  0.41466818    -0.60800
H279        H  0.17210007  0.29306658  0.44182965     0.43200
H280        H  0.03168909  0.29854960  0.31385675     0.43200
C281        C  0.91601587  0.25894382  0.38648419    -0.05900
C282        C  0.90135362  0.21840771  0.37009595    -0.33300
C283        C  0.87371131  0.21719155  0.33331160     0.36000
C284        C  0.86045189  0.25737837  0.31102367    -0.06200
C285        C  0.87344124  0.29830319  0.33015412    -0.33200
C286        C  0.90082866  0.29916283  0.36813449     0.35900
H287        H  0.91233838  0.18708292  0.38427058     0.16200
O288        O  0.86348243  0.17642445  0.31333539    -0.60700
H289        H  0.86438429  0.32938049  0.31265685     0.16200
O290        O  0.91436789  0.33932850  0.38397759    -0.60800
H291        H  0.93760366  0.34121059  0.36624436     0.43200
H292        H  0.85814692  0.15732801  0.34434115     0.43200
C293        C  0.86826093  0.18079330  0.14316437    -0.05900
C294        C  0.86374854  0.18221209  0.08779511    -0.33300
C295        C  0.89320977  0.18209750  0.05450689     0.36000
C296        C  0.92730755  0.17897158  0.07648140    -0.06200
C297        C  0.93122933  0.16688038  0.12957239    -0.33200
C298        C  0.90152866  0.16589744  0.16281557     0.35900
H299        H  0.83795546  0.18807002  0.07037868     0.16200
O300        O  0.88871667  0.18998962  0.00136036    -0.60700
H301        H  0.95744543  0.16224324  0.14628474     0.16200
O302        O  0.90547952  0.15472863  0.21539856    -0.60800
H303        H  0.92642071  0.17103066  0.22911175     0.43200
H304        H  0.88550045  0.22283589  0.99824600     0.43200
C305        C  0.42597145  0.28759908  0.35625543    -0.05900
C306        C  0.43405325  0.30148887  0.40792621    -0.33300
C307        C  0.40756826  0.30374441  0.44659824     0.36000
C308        C  0.37302102  0.28809821  0.43483148    -0.06200
C309        C  0.36394095  0.28071964  0.38162544    -0.33200
C310        C  0.39022926  0.28097438  0.34219436     0.35900
H311        H  0.46119909  0.30851808  0.41894000     0.16200
O312        O  0.41684640  0.31596390  0.49734041    -0.60700
H313        H  0.33743695  0.27010996  0.37126457     0.16200
O314        O  0.38128388  0.27141877  0.29064399    -0.60800
H315        H  0.37062949  0.24132439  0.29148599     0.43200
H316        H  0.40032424  0.34039793  0.50746593     0.43200
C317        C  0.41870853  0.18503559  0.16552876    -0.05900
C318        C  0.38397089  0.18616989  0.18419118    -0.33300
C319        C  0.35570733  0.18411857  0.14824914     0.36000
C320        C  0.36282039  0.18315802  0.09329751    -0.06200
C321        C  0.39655451  0.16794746  0.07779767    -0.33200
C322        C  0.42500467  0.17205702  0.11284560     0.35900
H323        H  0.37880747  0.19196953  0.22567055     0.16200
O324        O  0.32172208  0.18684288  0.16678218    -0.60700
H325        H  0.40208968  0.16139593  0.03636972     0.16200
O326        O  0.45876071  0.16929989  0.09344631    -0.60800
H327        H  0.47031796  0.14437888  0.11278762     0.43200
H328        H  0.31550248  0.15584432  0.17668770     0.43200
C329        C  0.58979509  0.29703601  0.31576950    -0.05900
C330        C  0.59020879  0.33279156  0.35184633    -0.33300
C331        C  0.61857126  0.33724792  0.38775351     0.36000
C332        C  0.64612608  0.30518806  0.38832061    -0.06200
C333        C  0.64896860  0.27568539  0.34522373    -0.33200
C334        C  0.62076794  0.27109653  0.30935327     0.35900
H335        H  0.56706026  0.35399509  0.35629415     0.16200
O336        O  0.61660770  0.36841795  0.42758780    -0.60700
H337        H  0.67028541  0.25139462  0.34398898     0.16200
O338        O  0.62204909  0.23778483  0.27185114    -0.60800
H339        H  0.63729974  0.24955445  0.24334041     0.43200
H340        H  0.59885464  0.35698470  0.45287449     0.43200
C341        C  0.56787220  0.20202948  0.12993881    -0.05900
C342        C  0.60312524  0.19234388  0.14287503    -0.33300
C343        C  0.62962616  0.19583769  0.10422870     0.36000
C344        C  0.62074544  0.21103908  0.05260735    -0.06200
C345        C  0.58475190  0.21145233  0.03816681    -0.33200
C346        C  0.55847086  0.20778353  0.07651492     0.35900
H347        H  0.61044363  0.18499519  0.18347096     0.16200
O348        O  0.66411580  0.18573042  0.11729021    -0.60700
H349        H  0.57649895  0.21677610  0.99764287     0.16200
O350        O  0.52372692  0.21328062  0.06202562    -0.60800
H351        H  0.51782411  0.18625576  0.04088520     0.43200
H352        H  0.67002884  0.20406172  0.14893150     0.43200
C353        C  0.37897086  0.05038749  0.06566834    -0.05900
C354        C  0.37201656  0.56305007  0.12033395    -0.33300
C355        C  0.39746867  0.56372992  0.16066993     0.36000
C356        C  0.43294083  0.55493123  0.14811582    -0.06200
C357        C  0.44083224  0.05854071  0.09012253    -0.33200
C358        C  0.41475955  0.05489018  0.05073799     0.35900
H359        H  0.34448127  0.56676487  0.13117482     0.16200
O360        O  0.38675801  0.56687154  0.21243922    -0.60700
H361        H  0.46849091  0.05705149  0.07910042     0.16200
O362        O  0.42428910  0.05469015  0.99817903    -0.60800
H363        H  0.44310161  0.03161480  0.99422236     0.43200
H364        H  0.39467780  0.59665673  0.22483212     0.43200
C365        C  0.41670938  0.45724657  0.33975387    -0.05900
C366        C  0.38535485  0.98058066  0.32574572    -0.33300
C367        C  0.35806191  0.97564276  0.36292529     0.36000
C368        C  0.36045518  0.45162084  0.41269779    -0.06200
C369        C  0.39136383  0.42544257  0.41932508    -0.33200
C370        C  0.41985115  0.42931455  0.38414188     0.35900
H371        H  0.38093657  0.00175102  0.29159193     0.16200
O372        O  0.32641730  0.99690037  0.35424990    -0.60700
H373        H  0.39573239  0.40804071  0.45632078     0.16200
O374        O  0.45178956  0.41004552  0.39682870    -0.60800
H375        H  0.46357049  0.43166319  0.42092163     0.43200
H376        H  0.31278194  0.97639840  0.33101586     0.43200
C377        C  0.63042068  0.97457057  0.44130306    -0.05900
C378        C  0.64019232  0.98113660  0.38831705    -0.33300
C379        C  0.61450732  0.98034603  0.34791760     0.36000
C380        C  0.57858221  0.97501574  0.36081309    -0.06200
C381        C  0.56861482  0.45663689  0.42005548    -0.33200
C382        C  0.59471215  0.45839724  0.45962335     0.35900
H383        H  0.66694176  0.99082399  0.37867886     0.16200
O384        O  0.62431835  0.98892961  0.29680616    -0.60700
H385        H  0.54141245  0.45008280  0.43077866     0.16200
O386        O  0.58629064  0.44679244  0.51071965    -0.60800
H387        H  0.56556965  0.46543207  0.52085110     0.43200
H388        H  0.62746714  0.95910172  0.28010090     0.43200
C389        C  0.63884157  0.07786580  0.09902611    -0.05900
C390        C  0.64558233  0.56859479  0.15521086    -0.33300
C391        C  0.61829319  0.56457334  0.19220215     0.36000
C392        C  0.58298832  0.07854395  0.17178115    -0.06200
C393        C  0.57672758  0.09130980  0.11930238    -0.33200
C394        C  0.60498040  0.09381745  0.08342833     0.35900
H395        H  0.67250995  0.56386979  0.16878831     0.16200
O396        O  0.62638154  0.55443486  0.24372146    -0.60700
H397        H  0.54986034  0.09662515  0.10542381     0.16200
O398        O  0.59910563  0.10742756  0.03202533    -0.60800
H399        H  0.57709579  0.09284771  0.01953650     0.43200
H400        H  0.62793050  0.58372161  0.26219627     0.43200
O401        O  0.47204562  0.50970171  0.67858095    -0.73300
O402        O  0.54059519  0.46466377  0.78716501    -0.74300
O403        O  0.46501701  0.45806400  0.77264378    -0.62900
O404        O  0.54546186  0.51729370  0.69463156    -0.71400
O405        O  0.54067106  0.06912596  0.74270922    -0.70900
O406        O  0.45943979  0.01268144  0.81984748    -0.62200
O407        O  0.53472625  0.01567871  0.83519456    -0.74700
O408        O  0.46634675  0.06514348  0.72822986    -0.73400
Cu409      Cu  0.50603013  0.48521724  0.73175600     1.04600
Cu410      Cu  0.50012842  0.04259158  0.78345628     1.04300
C411        C  0.45724331  0.54792808  0.68346424     0.92900
C412        C  0.55062396  0.97839313  0.82733613     0.92000
C413        C  0.44748725  0.48168396  0.80596533     0.84100
C414        C  0.55530318  0.04736855  0.70501550     0.90400
C415        C  0.35484250  0.02782770  0.53273940     0.86100
C416        C  0.37026193  0.49335391  0.99400213    -0.54100
C417        C  0.34683428  0.47353878  0.95995277     0.09000
C418        C  0.30779544  0.48806782  0.97075847     0.20000
C419        C  0.33465102  0.05882465  0.49565480    -0.54900
C420        C  0.30889931  0.03783547  0.95931298     0.09100
C421        C  0.32121556  0.50383743  0.56051845    -0.54400
C422        C  0.29812758  0.48006492  0.52984209     0.09700
H423        H  0.39833919  0.48657957  0.99149537     0.14200
H424        H  0.28810423  0.47108310  0.94497725    -0.00100
H425        H  0.34070848  0.09390575  0.49280610     0.14500
H426        H  0.32158743  0.50025147  0.60326358     0.14300
C427        C  0.66050006  0.04752070  0.55814864     0.86100
C428        C  0.68544720  0.51197224  0.58473284    -0.54100
C429        C  0.70185143  0.48523964  0.54830424     0.09000
C430        C  0.69376207  0.99895389  0.98978388     0.20000
C431        C  0.68283236  0.07477695  0.51948883    -0.54900
C432        C  0.70212630  0.04983933  0.98478709     0.09100
C433        C  0.63640848  0.01893650  0.52286131    -0.54400
C434        C  0.65223737  0.49459697  0.98485240     0.09700
H435        H  0.68777762  0.50519182  0.62677300     0.14200
H436        H  0.70691144  0.47767390  0.95703800    -0.00100
H437        H  0.68475307  0.11076663  0.52196462     0.14500
H438        H  0.60816191  0.02487607  0.02486492     0.14300
O439        O  0.46191767  0.29181479  0.78487484    -0.73300
O440        O  0.52704860  0.25277593  0.66933805    -0.74300
O441        O  0.45475888  0.24294982  0.68939468    -0.62900
O442        O  0.53704720  0.30066544  0.76544044    -0.71400
O443        O  0.54684856  0.23553913  0.80491034    -0.70900
O444        O  0.46531233  0.17801552  0.72921198    -0.62200
O445        O  0.53869333  0.18818748  0.70911696    -0.74700
O446        O  0.47141313  0.22702523  0.82538236    -0.73400
Cu447      Cu  0.49484659  0.27436637  0.72611610     1.04600
Cu448      Cu  0.50594605  0.20511839  0.76913556     1.04300
C449        C  0.45496435  0.26453228  0.82200117     0.92900
C450        C  0.54271236  0.21487210  0.67020629     0.92000
C451        C  0.44771230  0.20161233  0.69634457     0.84100
C452        C  0.55604724  0.27577233  0.79544309     0.90400
C453        C  0.34446419  0.21376950  0.55068241     0.86100
C454        C  0.32210512  0.25033403  0.57644434    -0.54100
C455        C  0.30395351  0.27720522  0.54234760     0.09000
C456        C  0.30911251  0.26279455  0.98406081     0.20000
C457        C  0.31912121  0.18852061  0.51466652    -0.54900
C458        C  0.30066293  0.21194223  0.97949071     0.09100
C459        C  0.36641011  0.23852142  0.01698789    -0.54400
C460        C  0.34993694  0.26428085  0.98003846     0.09700
H461        H  0.32200694  0.25670930  0.61876978     0.14200
H462        H  0.29530233  0.28401744  0.95438534    -0.00100
H463        H  0.31483869  0.15306204  0.51810427     0.14500
H464        H  0.39498843  0.23537179  0.01773269     0.14300
C465        C  0.64577721  0.23447328  0.51155764     0.86100
C466        C  0.63374548  0.26685040  0.97663021    -0.54100
C467        C  0.65844643  0.28641912  0.94505583     0.09000
C468        C  0.69701057  0.27280016  0.95993820     0.20000
C469        C  0.66811662  0.20177996  0.47924032    -0.54900
C470        C  0.69649837  0.22074508  0.95471782     0.09100
C471        C  0.67165757  0.26149194  0.54467866    -0.54400
C472        C  0.69773498  0.28272082  0.51776868     0.09700
H473        H  0.60579882  0.27223669  0.96944504     0.14200
H474        H  0.71737936  0.28949108  0.93556964    -0.00100
H475        H  0.66201704  0.16652437  0.47665966     0.14500
H476        H  0.66768847  0.26626327  0.58692086     0.14300
O477        O  0.96832890  0.22455932  0.91983969    -0.73300
O478        O  0.04857479  0.20734787  0.52165647    -0.74300
O479        O  0.97544875  0.18035962  0.51476874    -0.62900
O480        O  0.04096281  0.25176149  0.92556240    -0.71400
O481        O  0.02540025  0.31514079  0.96577355    -0.70900
O482        O  0.95941538  0.24436210  0.55309623    -0.62200
O483        O  0.03220739  0.27104622  0.56007147    -0.74700
O484        O  0.95233395  0.28816107  0.95878553    -0.73400
Cu485      Cu  0.00895254  0.21356116  0.96940560     1.04600
Cu486      Cu  0.99189026  0.28124091  0.01214733     1.04300
C487        C  0.94699871  0.25774372  0.92395982     0.92900
C488        C  0.05368426  0.23799320  0.55625059     0.92000
C489        C  0.95587486  0.20214313  0.54697392     0.84100
C490        C  0.04458330  0.29386762  0.93260785     0.90400
C491        C  0.15769027  0.29260162  0.80063777     0.86100
C492        C  0.18021622  0.25640324  0.82599211    -0.54100
C493        C  0.20074762  0.23228363  0.79193210     0.09000
C494        C  0.19664346  0.24739046  0.73247227     0.20000
C495        C  0.18416747  0.32116307  0.76948516    -0.54900
C496        C  0.20376559  0.29832288  0.73226373     0.09100
C497        C  0.13677394  0.26612479  0.75866034    -0.54400
C498        C  0.15644711  0.24476422  0.72132448     0.09700
H499        H  0.17864185  0.24804245  0.86759459     0.14200
H500        H  0.21284257  0.22784507  0.70389552    -0.00100
H501        H  0.18688705  0.35650128  0.77626988     0.14500
H502        H  0.10817616  0.26756003  0.75470755     0.14300
C503        C  0.84325767  0.20523424  0.68015024     0.86100
C504        C  0.86394861  0.23369652  0.72036757    -0.54100
C505        C  0.84423846  0.25469735  0.75783750     0.09000
C506        C  0.80397571  0.25144843  0.74652457     0.20000
C507        C  0.81769920  0.17660958  0.71323253    -0.54900
C508        C  0.79682608  0.20057512  0.74789220     0.09100
C509        C  0.81982343  0.24024229  0.65332137    -0.54400
C510        C  0.79968181  0.26535552  0.68686740     0.09700
H511        H  0.89257699  0.23368915  0.72331004     0.14200
H512        H  0.78770330  0.27153883  0.77448258    -0.00100
H513        H  0.81793592  0.14029081  0.71196128     0.14500
H514        H  0.82077220  0.24749907  0.61129097     0.14300
O515        O  0.03765070  0.00049471  0.93638128    -0.73300
O516        O  0.96265977  0.04622403  0.53204239    -0.74300
O517        O  0.03880042  0.05109493  0.53160850    -0.62900
O518        O  0.96351303  0.99575591  0.93873815    -0.71400
O519        O  0.96674271  0.43389962  0.97934160    -0.70900
O520        O  0.04287975  0.48720559  0.57493846    -0.62200
O521        O  0.96664642  0.48237772  0.57902673    -0.74700
O522        O  0.04161268  0.43851806  0.97818276    -0.73400
Cu523      Cu  0.99978714  0.02493115  0.98450550     1.04600
Cu524      Cu  0.00367104  0.45877629  0.02854307     1.04300
C525        C  0.05042822  0.46319945  0.93937813     0.92900
C526        C  0.95143120  0.52010721  0.57107136     0.92000
C527        C  0.05312789  0.52731143  0.56726310     0.84100
C528        C  0.95340688  0.45801069  0.94268388     0.90400
C529        C  0.15514350  0.47706638  0.78737700     0.86100
C530        C  0.13708007  0.51486221  0.75660981    -0.54100
C531        C  0.15772251  0.53634862  0.72052941     0.09000
C532        C  0.19725029  0.52138701  0.72424216     0.20000
C533        C  0.17260241  0.44814771  0.74510722    -0.54900
C534        C  0.19591215  0.47007279  0.71361378     0.09100
C535        C  0.18820847  0.00121288  0.81517297    -0.54400
C536        C  0.20856484  0.02643946  0.78225812     0.09700
H537        H  0.10886998  0.52092628  0.75920056     0.14200
H538        H  0.21582356  0.03898547  0.69541095    -0.00100
H539        H  0.16621635  0.41340859  0.73928170     0.14500
H540        H  0.19059173  0.00451576  0.85783630     0.14300
C541        C  0.84502477  0.46146198  0.79705506     0.86100
C542        C  0.82077606  0.99391442  0.82382755    -0.54100
C543        C  0.80015840  0.01837244  0.79037107     0.09000
C544        C  0.80739304  0.00741005  0.73036821     0.20000
C545        C  0.82188936  0.43189837  0.76166094    -0.54900
C546        C  0.80128511  0.45485901  0.72614681     0.09100
C547        C  0.86733795  0.99234569  0.76023847    -0.54400
C548        C  0.84769795  0.01524266  0.72389978     0.09700
H549        H  0.82092731  0.00078431  0.86600319     0.14200
H550        H  0.79081210  0.02669865  0.70202125    -0.00100
H551        H  0.82298080  0.39559624  0.76284919     0.14500
H552        H  0.89596100  0.99417977  0.76043190     0.14300
O553        O  0.75123101  0.08984343  0.94750738    -0.73300
O554        O  0.79331093  0.17093760  0.83545093    -0.74300
O555        O  0.74994674  0.18331760  0.92867269    -0.62900
O556        O  0.79480839  0.07767622  0.85337989    -0.71400
O557        O  0.74928035  0.06822128  0.79901767    -0.70900
O558        O  0.70199239  0.17156894  0.87975056    -0.62200
O559        O  0.74631347  0.16214450  0.78385937    -0.74700
O560        O  0.70523715  0.07713623  0.89493512    -0.73400
Cu561      Cu  0.77399777  0.13071362  0.89265117     1.04600
Cu562      Cu  0.72398014  0.11969489  0.83758455     1.04300
C563        C  0.72099627  0.07185148  0.93968113     0.92900
C564        C  0.77739800  0.17779701  0.79141829     0.92000
C565        C  0.71766463  0.19221516  0.91785713     0.84100
C566        C  0.78037648  0.05704028  0.81420597     0.90400
O567        O  0.79474039  0.32463352  0.62423932    -0.73300
O568        O  0.74859124  0.42958120  0.54868705    -0.74300
O569        O  0.79546876  0.41999368  0.64004162    -0.62900
O570        O  0.74795557  0.33327642  0.53362594    -0.71400
O571        O  0.70552902  0.32942533  0.59334739    -0.70900
O572        O  0.75110943  0.41369209  0.69657344    -0.62200
O573        O  0.70551726  0.42387694  0.60752557    -0.74700
O574        O  0.75159011  0.31918240  0.68292015    -0.73400
Cu575      Cu  0.77341125  0.37716053  0.58469414     1.04600
Cu576      Cu  0.72678117  0.37143394  0.64649309     1.04300
C577        C  0.78109025  0.30530927  0.66456347     0.92900
C578        C  0.71938531  0.44373281  0.56784877     0.92000
C579        C  0.78120014  0.42969736  0.68484577     0.84100
C580        C  0.71842718  0.31705437  0.54868290     0.90400
O581        O  0.30188239  0.08507298  0.88389494    -0.73300
O582        O  0.25014706  0.18004082  0.79710230    -0.74300
O583        O  0.29608212  0.18045311  0.89127764    -0.62900
O584        O  0.25499252  0.08272942  0.79258572    -0.71400
O585        O  0.20990071  0.08187989  0.84824914    -0.70900
O586        O  0.25192091  0.17017004  0.94732513    -0.62200
O587        O  0.20728102  0.17526505  0.85628788    -0.74700
O588        O  0.25549609  0.07602775  0.93620014    -0.73400
Cu589      Cu  0.27742810  0.13240991  0.83889410     1.04600
Cu590      Cu  0.22950954  0.12580532  0.89821694     1.04300
C591        C  0.28722503  0.06605586  0.92345344     0.92900
C592        C  0.22030769  0.19339580  0.81483817     0.92000
C593        C  0.28124415  0.18848073  0.93615942     0.84100
C594        C  0.22545528  0.06619136  0.80741303     0.90400
O595        O  0.25340224  0.34012123  0.70102616    -0.73300
O596        O  0.29479688  0.42784490  0.59970064    -0.74300
O597        O  0.24967642  0.43366320  0.68911328    -0.62900
O598        O  0.29795758  0.33402254  0.60821682    -0.71400
O599        O  0.25443099  0.32908230  0.54947693    -0.70900
O600        O  0.20346424  0.42564851  0.63544815    -0.62200
O601        O  0.25007545  0.42582504  0.54298162    -0.73100
O602        O  0.20900721  0.33073101  0.64465560    -0.73400
Cu603      Cu  0.27566597  0.38401384  0.65071779     1.04600
Cu604      Cu  0.22760595  0.37748992  0.59096256     1.04300
C605        C  0.22347914  0.32296060  0.69002735     0.92900
C606        C  0.27984685  0.44226745  0.55748507     0.92000
C607        C  0.21790680  0.44369470  0.67621659     0.84100
C608        C  0.28463521  0.31603076  0.56641234     0.90400
C609        C  0.08318895  0.54431091  0.59856526    -0.05900
C610        C  0.11747968  0.52982618  0.58612216    -0.33300
C611        C  0.14535401  0.53506723  0.62242487     0.36000
C612        C  0.13869557  0.55399854  0.67271881    -0.06200
C613        C  0.10583211  0.57573366  0.68061794    -0.33200
C614        C  0.07772670  0.56921470  0.64500692     0.35900
H615        H  0.12207096  0.51143892  0.54985634     0.16200
O616        O  0.17759314  0.51657714  0.61063789    -0.60700
H617        H  0.10033653  0.59197720  0.71820079     0.16200
O618        O  0.04451402  0.58433873  0.65781049    -0.60800
H619        H  0.03458970  0.56111511  0.68132227     0.43200
H620        H  0.19180531  0.54158315  0.59658811     0.43200
C621        C  0.12942905  0.45210797  0.82349803    -0.05900
C622        C  0.13841994  0.44308125  0.87672166    -0.33300
C623        C  0.11215048  0.44162580  0.91561730     0.36000
C624        C  0.07669381  0.44772863  0.90079972    -0.06200
C625        C  0.06741926  0.44618383  0.84705643    -0.33200
C626        C  0.09372306  0.44630016  0.80810308     0.35900
H627        H  0.16577254  0.44091436  0.88921605     0.16200
O628        O  0.12145072  0.43813021  0.96808499    -0.60700
H629        H  0.03984249  0.44754522  0.83531021     0.16200
O630        O  0.08454241  0.44338476  0.75534340    -0.60800
H631        H  0.06555211  0.46584344  0.74917074     0.43200
H632        H  0.13516427  0.46546061  0.97635673     0.43200
C633        C  0.92607549  0.44001186  0.90761094    -0.05900
C634        C  0.89139039  0.43631409  0.92606583    -0.33300
C635        C  0.86314897  0.43374188  0.88983207     0.36000
C636        C  0.87006212  0.43627886  0.83488166    -0.06200
C637        C  0.90502060  0.42751510  0.81821960    -0.33200
C638        C  0.93314288  0.43241960  0.85380893     0.35900
H639        H  0.88601054  0.43895594  0.96811513     0.16200
O640        O  0.82906028  0.42940799  0.90784281    -0.60700
H641        H  0.91097728  0.42349597  0.77650722     0.16200
O642        O  0.96718361  0.43293596  0.83523791    -0.60800
H643        H  0.97433494  0.40109295  0.83221813     0.43200
H644        H  0.82582333  0.45199816  0.93637809     0.43200
C645        C  0.86686475  0.03473519  0.67776657    -0.05900
C646        C  0.89965071  0.05534463  0.68802250    -0.33300
C647        C  0.92700598  0.05365440  0.65091064     0.36000
C648        C  0.92043837  0.53245524  0.60347633    -0.06200
C649        C  0.88682307  0.51655448  0.58908090    -0.33200
C650        C  0.85860989  0.51820745  0.62517937     0.35900
H651        H  0.90565300  0.06745342  0.72757457     0.16200
O652        O  0.96006439  0.06828503  0.66499181    -0.60700
H653        H  0.88309129  0.50001789  0.55116498     0.16200
O654        O  0.82713788  0.49884463  0.61151479    -0.60800
H655        H  0.81261837  0.52340138  0.59640744     0.43200
H656        H  0.97116922  0.04287788  0.68407596     0.43200
C657        C  0.08527606  0.23722508  0.59107021    -0.05900
C658        C  0.09982109  0.27821291  0.60623877    -0.33300
C659        C  0.12675592  0.28047643  0.64406371     0.36000
C660        C  0.13955250  0.24096132  0.66825054    -0.06200
C661        C  0.12692176  0.19945757  0.65027724    -0.33200
C662        C  0.10013531  0.19742699  0.61136050     0.35900
H663        H  0.08910838  0.30913474  0.59045135     0.16200
O664        O  0.13667592  0.32173321  0.66304939    -0.60700
H665        H  0.13587825  0.16893642  0.66917433     0.16200
O666        O  0.08719824  0.15667537  0.59603668    -0.60800
H667        H  0.06296666  0.15548102  0.61073884     0.43200
H668        H  0.14256135  0.34001702  0.63166676     0.43200
C669        C  0.13276397  0.31839954  0.83849353    -0.05900
C670        C  0.09926338  0.33211761  0.81920412    -0.33300
C671        C  0.06925019  0.32838071  0.85114936     0.36000
C672        C  0.07322995  0.31636822  0.90441528    -0.06200
C673        C  0.10718784  0.31544559  0.92684809    -0.33200
C674        C  0.13718841  0.31707301  0.89420805     0.35900
H675        H  0.09548036  0.33882168  0.77740300     0.16200
O676        O  0.03620863  0.33252728  0.82893838    -0.60700
H677        H  0.11045428  0.30914936  0.96887628     0.16200
O678        O  0.17048293  0.31675916  0.91646344    -0.60800
H679        H  0.17090129  0.29247188  0.94310581     0.43200
H680        H  0.02984580  0.30203882  0.81690419     0.43200
C681        C  0.91542706  0.25906123  0.88896869    -0.05900
C682        C  0.90112858  0.21842348  0.87215426    -0.33300
C683        C  0.87434995  0.21693035  0.83397685     0.36000
C684        C  0.86124726  0.25700864  0.81119137    -0.06200
C685        C  0.87373601  0.29806186  0.83080311    -0.33200
C686        C  0.90054593  0.29917870  0.86977071     0.35900
H687        H  0.91198904  0.18718554  0.88680768     0.16200
O688        O  0.86494556  0.17605880  0.81331270    -0.60700
H689        H  0.86480724  0.32904735  0.81294925     0.16200
O690        O  0.91391621  0.33944434  0.88567618    -0.60800
H691        H  0.93734882  0.34134886  0.86841964     0.43200
H692        H  0.85953234  0.15654009  0.84391335     0.43200
C693        C  0.86849183  0.17922819  0.64321517    -0.05900
C694        C  0.86341344  0.18060967  0.58791143    -0.33300
C695        C  0.89254400  0.18236414  0.55398391     0.36000
C696        C  0.92694308  0.18008623  0.57513766    -0.06200
C697        C  0.93156450  0.16740616  0.62793707    -0.33200
C698        C  0.90222973  0.16524311  0.66188798     0.35900
H699        H  0.83729724  0.18551820  0.57115708     0.16200
O700        O  0.88727699  0.19082553  0.50111385    -0.60700
H701        H  0.95801192  0.16314465  0.64393347     0.16200
O702        O  0.90687718  0.15361653  0.71420991    -0.60800
H703        H  0.92804453  0.16969881  0.72750130     0.43200
H704        H  0.88316981  0.22356389  0.49874243     0.43200
C705        C  0.42558214  0.27470605  0.85858973    -0.05900
C706        C  0.43149955  0.29768950  0.90619442    -0.33300
C707        C  0.40460618  0.30069470  0.94439920     0.36000
C708        C  0.37133558  0.28062544  0.93485204    -0.06200
C709        C  0.36432951  0.26283324  0.88454388    -0.33200
C710        C  0.39135081  0.25909444  0.84698303     0.35900
H711        H  0.45745857  0.31101866  0.91503821     0.16200
O712        O  0.41151869  0.32086106  0.99234251    -0.60700
H713        H  0.33912017  0.24728983  0.87630168     0.16200
O714        O  0.38475411  0.23694754  0.80048783    -0.60800
H715        H  0.38940990  0.20505522  0.80875670     0.43200
H716        H  0.43015963  0.30244688  0.00949298     0.43200
C717        C  0.41988242  0.18145041  0.66377518    -0.05900
C718        C  0.38475684  0.18292902  0.68077350    -0.33300
C719        C  0.35725750  0.18278958  0.64362784     0.36000
C720        C  0.36545186  0.18408660  0.58912681    -0.06200
C721        C  0.39941082  0.16918089  0.57410392    -0.33200
C722        C  0.42709745  0.17008297  0.61086569     0.35900
H723        H  0.37859852  0.18761630  0.72200113     0.16200
O724        O  0.32297333  0.18560848  0.66085689    -0.60700
H725        H  0.40572731  0.16416653  0.53265916     0.16200
O726        O  0.46125214  0.16624579  0.59320007    -0.60800
H727        H  0.47207826  0.14138380  0.61358736     0.43200
H728        H  0.31514727  0.15417030  0.66438511     0.43200
C729        C  0.58950115  0.29202958  0.81920739    -0.05900
C730        C  0.58945073  0.32829106  0.85458281    -0.33300
C731        C  0.61734495  0.33332364  0.89122359     0.36000
C732        C  0.64533807  0.30183463  0.89250918    -0.06200
C733        C  0.64850801  0.27155326  0.85018335    -0.33200
C734        C  0.62058374  0.26611340  0.81403283     0.35900
H735        H  0.56620873  0.34946715  0.85800842     0.16200
O736        O  0.61471567  0.36494084  0.93053573    -0.60700
H737        H  0.67005035  0.24760153  0.84959119     0.16200
O738        O  0.62235059  0.23222922  0.77727970    -0.60800
H739        H  0.63375248  0.24565019  0.74588358     0.43200
H740        H  0.59581523  0.35438359  0.95447979     0.43200
C741        C  0.56628301  0.20370351  0.62591448    -0.05900
C742        C  0.60112475  0.18990933  0.63574024    -0.33300
C743        C  0.62682543  0.19373123  0.59597380     0.36000
C744        C  0.61756178  0.21262565  0.54627343    -0.06200
C745        C  0.58135242  0.21740840  0.53426724    -0.33200
C746        C  0.55595630  0.21422780  0.57391854     0.35900
H747        H  0.60904730  0.17959451  0.67518436     0.16200
O748        O  0.66121089  0.18138021  0.60667700    -0.60700
H749        H  0.57222754  0.22595124  0.49503312     0.16200
O750        O  0.52146108  0.22523707  0.56253487    -0.60800
H751        H  0.51303607  0.20166341  0.53783914     0.43200
H752        H  0.66865432  0.19901451  0.63813471     0.43200
C753        C  0.38144647  0.05160788  0.56918767    -0.05900
C754        C  0.36872743  0.56180289  0.62020937    -0.33300
C755        C  0.39521605  0.56525556  0.65876112     0.36000
C756        C  0.43069774  0.56080687  0.64386969    -0.06200
C757        C  0.44330413  0.05595496  0.59500813    -0.33200
C758        C  0.41745295  0.05543451  0.55507758     0.35900
H759        H  0.34151251  0.56352702  0.63307196     0.16200
O760        O  0.38612588  0.56643625  0.71135057    -0.60700
H761        H  0.47101636  0.05371827  0.58443629     0.16200
O762        O  0.42728900  0.05791673  0.50274175    -0.60800
H763        H  0.44644687  0.03551526  0.49745021     0.43200
H764        H  0.37493327  0.59604257  0.71722639     0.43200
C765        C  0.41616996  0.46361873  0.83347464    -0.05900
C766        C  0.38482770  0.97660961  0.82598735    -0.33300
C767        C  0.35674666  0.97334978  0.86198280     0.36000
C768        C  0.36197501  0.45541184  0.90940543    -0.06200
C769        C  0.39282999  0.42866883  0.91263556    -0.33200
C770        C  0.42004469  0.43304905  0.87527203     0.35900
H771        H  0.38195552  0.99837602  0.79201712     0.16200
O772        O  0.32644514  0.99731226  0.85245527    -0.60700
H773        H  0.39805136  0.40950062  0.94819019     0.16200
O774        O  0.45159721  0.41115640  0.88325161    -0.60800
H775        H  0.46616539  0.43188387  0.90489145     0.43200
H776        H  0.31004735  0.97586201  0.83529094     0.43200
C777        C  0.63102075  0.97457113  0.94424197    -0.05900
C778        C  0.64030936  0.97936759  0.89084064    -0.33300
C779        C  0.61473455  0.97420252  0.85075700     0.36000
C780        C  0.57929682  0.96568848  0.86407510    -0.06200
C781        C  0.56858781  0.46184312  0.91493113    -0.33200
C782        C  0.59535309  0.45955538  0.95356371     0.35900
H783        H  0.66640039  0.99110149  0.88040534     0.16200
O784        O  0.62378609  0.98234995  0.79925601    -0.60700
H785        H  0.54153561  0.45428827  0.92552777     0.16200
O786        O  0.58758659  0.44390838  0.00334200    -0.60800
H787        H  0.56717189  0.46182764  0.01627496     0.43200
H788        H  0.62967387  0.95260285  0.78403394     0.43200
C789        C  0.63826881  0.07377141  0.59914358    -0.05900
C790        C  0.64614370  0.57211165  0.65687012    -0.33300
C791        C  0.61841216  0.57392321  0.69348479     0.36000
C792        C  0.58338382  0.06797003  0.67323397    -0.06200
C793        C  0.57599343  0.08253682  0.62166342    -0.33200
C794        C  0.60368682  0.08823534  0.58527013     0.35900
H795        H  0.67251866  0.56492364  0.67135147     0.16200
O796        O  0.62549550  0.56798396  0.74623083    -0.60700
H797        H  0.54881308  0.08702511  0.60882039     0.16200
O798        O  0.59669601  0.10339982  0.53480689    -0.60800
H799        H  0.57565650  0.08708418  0.52160752     0.43200
H800        H  0.62422194  0.59836190  0.76212184     0.43200
O801        O  0.47218654  0.00925442  0.17861846    -0.73300
O802        O  0.54313085  0.96453149  0.28353959    -0.74300
O803        O  0.46717323  0.95709849  0.27251159    -0.62900
O804        O  0.54553728  0.01787156  0.19128803    -0.71400
O805        O  0.53942003  0.56925981  0.24337581    -0.70900
O806        O  0.45847928  0.51390042  0.32225569    -0.62200
O807        O  0.53365980  0.51715945  0.33716435    -0.74700
O808        O  0.46498755  0.56465035  0.22888478    -0.73400
Cu809      Cu  0.50724321  0.98497011  0.22995123     1.04600
Cu810      Cu  0.49895172  0.54327131  0.28481993     1.04300
C811        C  0.45747653  0.04749539  0.18375899     0.92900
C812        C  0.54893455  0.47927708  0.33042777     0.92000
C813        C  0.44990338  0.98049562  0.30640243     0.84100
C814        C  0.55461471  0.54659069  0.20694588     0.90400
C815        C  0.35451422  0.52859302  0.03149900     0.86100
C816        C  0.37130591  0.99221801  0.49648578    -0.54100
C817        C  0.34864436  0.97210646  0.46152579     0.09000
C818        C  0.30930495  0.98641140  0.47093133     0.20000
C819        C  0.33379147  0.56011752  0.99565127    -0.54900
C820        C  0.30665545  0.53877835  0.46118988     0.09100
C821        C  0.32262805  0.00326189  0.05881636    -0.54400
C822        C  0.29932914  0.97986727  0.02810436     0.09700
H823        H  0.39946218  0.98565082  0.49544106     0.14200
H824        H  0.29006129  0.96900878  0.44478609    -0.00100
H825        H  0.33978785  0.59529657  0.99311770     0.14500
H826        H  0.32272756  0.00010895  0.10162135     0.14300
C827        C  0.66005666  0.54691981  0.05928354     0.86100
C828        C  0.68460113  0.01373577  0.08431330    -0.54100
C829        C  0.70162625  0.98661809  0.04897640     0.09000
C830        C  0.69269365  0.49786839  0.48977396     0.20000
C831        C  0.68323940  0.57424910  0.02170283    -0.54900
C832        C  0.70048993  0.54894712  0.48500268     0.09100
C833        C  0.63599150  0.51942022  0.02286445    -0.54400
C834        C  0.65258874  0.99408022  0.48475219     0.09700
H835        H  0.68600651  0.00734168  0.12653995     0.14200
H836        H  0.70723779  0.97786213  0.45628456    -0.00100
H837        H  0.68560115  0.61013093  0.02502050     0.14500
H838        H  0.60763747  0.52260127  0.52919794     0.14300
O839        O  0.46226660  0.79666669  0.28403302    -0.73300
O840        O  0.52572891  0.75073330  0.17007007    -0.74300
O841        O  0.45330368  0.74429973  0.19207030    -0.62900
O842        O  0.53749124  0.80197414  0.26294837    -0.71400
O843        O  0.54663396  0.73796957  0.30524010    -0.70900
O844        O  0.46250144  0.68096378  0.23599317    -0.62200
O845        O  0.53614836  0.68714902  0.21270432    -0.74700
O846        O  0.47147518  0.73377845  0.32869402    -0.73400
Cu847      Cu  0.49438901  0.77567450  0.22602552     1.04600
Cu848      Cu  0.50451794  0.70793724  0.27275968     1.04300
C849        C  0.45536091  0.77132131  0.32303300     0.92900
C850        C  0.54072627  0.71246729  0.17262980     0.92000
C851        C  0.44518271  0.70375096  0.20199545     0.84100
C852        C  0.55649475  0.77745864  0.29337846     0.90400
C853        C  0.34183952  0.71242329  0.05604027     0.86100
C854        C  0.31989241  0.74999669  0.08057643    -0.54100
C855        C  0.30254716  0.77680021  0.04548307     0.09000
C856        C  0.31033621  0.76312183  0.48472078     0.20000
C857        C  0.31621515  0.68726813  0.01988779    -0.54900
C858        C  0.30073129  0.71262758  0.47996021     0.09100
C859        C  0.36805672  0.73623147  0.51305118    -0.54400
C860        C  0.35099118  0.76340743  0.47814733     0.09700
H861        H  0.31954692  0.75712200  0.12273394     0.14200
H862        H  0.29609699  0.78509643  0.45629796    -0.00100
H863        H  0.31149383  0.65187253  0.02363794     0.14500
H864        H  0.39661749  0.73289967  0.51227643     0.14300
C865        C  0.64389230  0.73342028  0.01515533     0.86100
C866        C  0.63238012  0.76977308  0.47065069    -0.54100
C867        C  0.65843651  0.78790591  0.44045192     0.09000
C868        C  0.69617922  0.77370478  0.45860585     0.20000
C869        C  0.66756414  0.70152236  0.98366717    -0.54900
C870        C  0.69479524  0.72162434  0.45518953     0.09100
C871        C  0.66866975  0.76261475  0.04774786    -0.54400
C872        C  0.69416625  0.78462027  0.02038332     0.09700
H873        H  0.60493504  0.77574035  0.46067304     0.14200
H874        H  0.71759280  0.78908954  0.43504134    -0.00100
H875        H  0.66252242  0.66600967  0.98158909     0.14500
H876        H  0.66468426  0.76764328  0.08995085     0.14300
O877        O  0.96746157  0.72693007  0.41972063    -0.73300
O878        O  0.04653247  0.70694990  0.02529917    -0.74300
O879        O  0.97379418  0.67859651  0.01852666    -0.62900
O880        O  0.04004371  0.75505789  0.42469021    -0.71400
O881        O  0.02447587  0.81855492  0.46459527    -0.70900
O882        O  0.95722027  0.74279919  0.05591098    -0.62200
O883        O  0.02965392  0.77084419  0.06274707    -0.74700
O884        O  0.95122607  0.79057951  0.45822949    -0.73400
Cu885      Cu  0.00813767  0.71685717  0.46905718     1.04600
Cu886      Cu  0.99119475  0.78469482  0.51150653     1.04300
C887        C  0.94587979  0.75980235  0.42375732     0.92900
C888        C  0.05142799  0.73812166  0.05933628     0.92000
C889        C  0.95396511  0.70047918  0.05019660     0.84100
C890        C  0.04377278  0.79718121  0.43166356     0.90400
C891        C  0.15740198  0.79553435  0.30076360     0.86100
C892        C  0.18035704  0.75972520  0.32618455    -0.54100
C893        C  0.20060290  0.73524608  0.29199484     0.09000
C894        C  0.19595580  0.74998427  0.23239708     0.20000
C895        C  0.18348024  0.82398573  0.26886383    -0.54900
C896        C  0.20280525  0.80099107  0.23151245     0.09100
C897        C  0.13627662  0.76852921  0.25955778    -0.54400
C898        C  0.15570691  0.74715038  0.22198811     0.09700
H899        H  0.17916016  0.75174966  0.36792972     0.14200
H900        H  0.21195451  0.73032857  0.20367008    -0.00100
H901        H  0.18631077  0.85932308  0.27553586     0.14500
H902        H  0.10763799  0.76977153  0.25615429     0.14300
C903        C  0.84100111  0.70540957  0.18138454     0.86100
C904        C  0.86180211  0.73545089  0.21990279    -0.54100
C905        C  0.84239639  0.75623649  0.25786421     0.09000
C906        C  0.80206696  0.75196591  0.24772872     0.20000
C907        C  0.81641976  0.67686971  0.21603097    -0.54900
C908        C  0.79569859  0.70103021  0.25058413     0.09100
C909        C  0.81658743  0.73907093  0.15418779    -0.54400
C910        C  0.79674385  0.76462305  0.18779720     0.09700
H911        H  0.89046651  0.73621474  0.22176758     0.14200
H912        H  0.78589390  0.77222144  0.27564942    -0.00100
H913        H  0.81700665  0.64054030  0.21552301     0.14500
H914        H  0.81692608  0.74543970  0.11191985     0.14300
O915        O  0.03806570  0.50177969  0.43582666    -0.73300
O916        O  0.96179574  0.54777330  0.03237968    -0.74300
O917        O  0.03823273  0.55188586  0.02982736    -0.62900
O918        O  0.96417774  0.49670576  0.43891067    -0.71400
O919        O  0.96807793  0.93244465  0.48099177    -0.70900
O920        O  0.04128313  0.98511529  0.07616173    -0.62200
O921        O  0.96506317  0.98046826  0.07869405    -0.74700
O922        O  0.04300045  0.93688125  0.47937372    -0.73400
Cu923      Cu  0.00054689  0.52638697  0.48398304     1.04600
Cu924      Cu  0.00499668  0.95748117  0.52981661     1.04300
C925        C  0.05223044  0.96183725  0.44099825     0.92900
C926        C  0.95020916  0.01852459  0.07126946     0.92000
C927        C  0.05161529  0.02524058  0.06892514     0.84100
C928        C  0.95529389  0.95628517  0.44367702     0.90400
C929        C  0.15566907  0.97755804  0.28728336     0.86100
C930        C  0.13731938  0.01633780  0.25867237    -0.54100
C931        C  0.15721952  0.03805839  0.22179964     0.09000
C932        C  0.19673695  0.02269351  0.22353701     0.20000
C933        C  0.17195063  0.94939041  0.24316227    -0.54900
C934        C  0.19488939  0.97173832  0.21145638     0.09100
C935        C  0.18583167  0.50333180  0.31487600    -0.54400
C936        C  0.20632788  0.52864484  0.28237912     0.09700
H937        H  0.10920648  0.02244963  0.26284539     0.14200
H938        H  0.21465093  0.54051462  0.19546018    -0.00100
H939        H  0.16525716  0.91484472  0.23648179     0.14500
H940        H  0.18748756  0.50706933  0.35757421     0.14300
C941        C  0.84578732  0.96090041  0.29901330     0.86100
C942        C  0.82206593  0.49631427  0.32514087    -0.54100
C943        C  0.80069325  0.52006099  0.29202091     0.09000
C944        C  0.80636587  0.50749574  0.23202593     0.20000
C945        C  0.82404063  0.93078675  0.26213783    -0.54900
C946        C  0.80309545  0.95344245  0.22672343     0.09100
C947        C  0.86681074  0.49138804  0.25897595    -0.54400
C948        C  0.84662607  0.51413231  0.22323646     0.09700
H949        H  0.82328657  0.50406924  0.36708304     0.14200
H950        H  0.78948223  0.52648026  0.20378825    -0.00100
H951        H  0.82579880  0.89452380  0.26297858     0.14500
H952        H  0.89542804  0.49282053  0.25755501     0.14300
O953        O  0.74955831  0.58964364  0.44885281    -0.73300
O954        O  0.79212102  0.67187745  0.33834303    -0.74300
O955        O  0.74812702  0.68324947  0.43091287    -0.62900
O956        O  0.79416838  0.57871844  0.35561318    -0.71400
O957        O  0.74904888  0.56875996  0.30063063    -0.70900
O958        O  0.70053039  0.67137578  0.38122877    -0.62200
O959        O  0.74540678  0.66254714  0.28619206    -0.74700
O960        O  0.70395151  0.57684742  0.39553292    -0.73400
Cu961      Cu  0.77263464  0.63113422  0.39491597     1.04600
Cu962      Cu  0.72300987  0.61979229  0.33908223     1.04300
C963        C  0.71946442  0.57142649  0.44040291     0.92900
C964        C  0.77631727  0.67852430  0.29415205     0.92000
C965        C  0.71595215  0.69211351  0.41951529     0.84100
C966        C  0.78022147  0.55809842  0.31605195     0.90400
O967        O  0.79211309  0.82345192  0.12466179    -0.73300
O968        O  0.74809758  0.93056975  0.05075009    -0.74300
O969        O  0.79590701  0.91837983  0.14100149    -0.62900
O970        O  0.74476481  0.83455708  0.03536658    -0.71400
O971        O  0.70280178  0.83152003  0.09593494    -0.70900
O972        O  0.75166917  0.91431459  0.19811524    -0.62200
O973        O  0.70512748  0.92622262  0.10991240    -0.74700
O974        O  0.74964584  0.81992474  0.18468167    -0.73400
Cu975      Cu  0.77189755  0.87700729  0.08599624     1.04600
Cu976      Cu  0.72564869  0.87300263  0.14865773     1.04300
C977        C  0.77854043  0.80483002  0.16548736     0.92900
C978        C  0.71908000  0.94542988  0.06981649     0.92000
C979        C  0.78225375  0.92862447  0.18605043     0.84100
C980        C  0.71516155  0.81893711  0.05096049     0.90400
O981        O  0.29971431  0.58480444  0.38434754    -0.73300
O982        O  0.24975859  0.68229343  0.29787427    -0.74300
O983        O  0.29588988  0.68061278  0.39213178    -0.62900
O984        O  0.25291814  0.58472345  0.29262080    -0.71400
O985        O  0.20840931  0.58359695  0.34928689    -0.70900
O986        O  0.25081429  0.67317443  0.44723950    -0.62200
O987        O  0.20618816  0.67753694  0.35585819    -0.74700
O988        O  0.25379090  0.57862736  0.43810543    -0.73400
Cu989      Cu  0.27619794  0.63340296  0.33945969     1.04600
Cu990      Cu  0.22814488  0.62823510  0.39879770     1.04300
C991        C  0.28510530  0.56702971  0.42480873     0.92900
C992        C  0.21976054  0.69586199  0.31491973     0.92000
C993        C  0.28081908  0.68991073  0.43651518     0.84100
C994        C  0.22351277  0.56814642  0.30787267     0.90400
O995        O  0.25208620  0.84320102  0.20059181    -0.73300
O996        O  0.29480300  0.92860252  0.09850045    -0.74300
O997        O  0.24892170  0.93640333  0.18676249    -0.62900
O998        O  0.29710700  0.83510825  0.10933730    -0.71400
O999        O  0.25421184  0.83028508  0.04948925    -0.70900
O1000       O  0.20272802  0.92745247  0.13324990    -0.62200
O1001       O  0.25026550  0.92701061  0.04145467    -0.73100
O1002       O  0.20822721  0.83266955  0.14350024    -0.73400
Cu1003     Cu  0.27491397  0.88600995  0.14998368     1.04600
Cu1004     Cu  0.22722424  0.87908390  0.08964411     1.04300
C1005       C  0.22244667  0.82550146  0.18921568     0.92900
C1006       C  0.28023740  0.94289955  0.05597849     0.92000
C1007       C  0.21704777  0.94585391  0.17388049     0.84100
C1008       C  0.28390318  0.81669160  0.06775382     0.90400
C1009       C  0.08132361  0.04224811  0.10092111    -0.05900
C1010       C  0.11587696  0.02934138  0.08787213    -0.33300
C1011       C  0.14384758  0.03577525  0.12372104     0.36000
C1012       C  0.13708554  0.05436861  0.17420560    -0.06200
C1013       C  0.10367529  0.07457257  0.18266033    -0.33200
C1014       C  0.07548401  0.06664274  0.14763712     0.35900
H1015       H  0.12075133  0.01154552  0.05126333     0.16200
O1016       O  0.17657150  0.01926391  0.11096733    -0.60700
H1017       H  0.09804934  0.09081254  0.22020083     0.16200
O1018       O  0.04199415  0.08028142  0.16103618    -0.60800
H1019       H  0.03295063  0.05657214  0.18466863     0.43200
H1020       H  0.18968588  0.04517161  0.09680565     0.43200
C1021       C  0.13037069  0.95224972  0.32373938    -0.05900
C1022       C  0.13981977  0.94261713  0.37667193    -0.33300
C1023       C  0.11385102  0.94031341  0.41600535     0.36000
C1024       C  0.07825619  0.94642825  0.40195617    -0.06200
C1025       C  0.06859528  0.94570525  0.34832993    -0.33200
C1026       C  0.09456457  0.94650941  0.30891106     0.35900
H1027       H  0.16726096  0.94033191  0.38864998     0.16200
O1028       O  0.12356477  0.93577067  0.46819317    -0.60700
H1029       H  0.04093221  0.94720568  0.33707797     0.16200
O1030       O  0.08493074  0.94449057  0.25627537    -0.60800
H1031       H  0.06607259  0.96728005  0.25093518     0.43200
H1032       H  0.13693671  0.96315479  0.47717853     0.43200
C1033       C  0.92781350  0.93860153  0.40886069    -0.05900
C1034       C  0.89322292  0.93533734  0.42773100    -0.33300
C1035       C  0.86474203  0.93360690  0.39188816     0.36000
C1036       C  0.87130846  0.93648677  0.33683184    -0.06200
C1037       C  0.90616604  0.92784871  0.31951138    -0.33200
C1038       C  0.93452192  0.93173115  0.35485264     0.35900
H1039       H  0.88814123  0.93748907  0.46990863     0.16200
O1040       O  0.83083161  0.92893809  0.41045112    -0.60700
H1041       H  0.91186575  0.92453402  0.27763144     0.16200
O1042       O  0.96850038  0.93154878  0.33600333    -0.60800
H1043       H  0.97514952  0.89955199  0.33281728     0.43200
H1044       H  0.82777845  0.95128180  0.43929520     0.43200
C1045       C  0.86513800  0.53408476  0.17683709    -0.05900
C1046       C  0.89737073  0.55609270  0.18685122    -0.33300
C1047       C  0.92485060  0.55500787  0.14987258     0.36000
C1048       C  0.91974483  0.03154945  0.10460930    -0.06200
C1049       C  0.88548939  0.01756941  0.09061109    -0.33200
C1050       C  0.85774298  0.01964890  0.12757509     0.35900
H1051       H  0.90300662  0.56871019  0.22629654     0.16200
O1052       O  0.95751528  0.57097711  0.16391800    -0.60700
H1053       H  0.88086609  0.00198972  0.05235645     0.16200
O1054       O  0.82563063  0.00172517  0.11437714    -0.60800
H1055       H  0.81164273  0.02698453  0.09978459     0.43200
H1056       H  0.96929223  0.54599608  0.18287188     0.43200
C1057       C  0.08315967  0.73836312  0.09381914    -0.05900
C1058       C  0.09695512  0.77977098  0.10912916    -0.33300
C1059       C  0.12453993  0.78259676  0.14581381     0.36000
C1060       C  0.13840125  0.74330125  0.16924531    -0.06200
C1061       C  0.12647930  0.70155129  0.15109357    -0.33200
C1062       C  0.09927169  0.69894085  0.11295537     0.35900
H1063       H  0.08540488  0.81047803  0.09405913     0.16200
O1064       O  0.13434832  0.82405450  0.16428374    -0.60700
H1065       H  0.13637422  0.67116886  0.16926269     0.16200
O1066       O  0.08722928  0.65786864  0.09720336    -0.60800
H1067       H  0.06343442  0.65523603  0.11315731     0.43200
H1068       H  0.14091631  0.84167169  0.13265610     0.43200
C1069       C  0.13247554  0.82159330  0.33834502    -0.05900
C1070       C  0.09906506  0.83544344  0.31881378    -0.33300
C1071       C  0.06893718  0.83198711  0.35061014     0.36000
C1072       C  0.07268935  0.81958024  0.40377329    -0.06200
C1073       C  0.10661279  0.81854241  0.42644781    -0.33200
C1074       C  0.13673624  0.82040932  0.39402460     0.35900
H1075       H  0.09543570  0.84209889  0.27696510     0.16200
O1076       O  0.03597786  0.83713074  0.32844373    -0.60700
H1077       H  0.10975823  0.81225319  0.46849105     0.16200
O1078       O  0.16998531  0.82078532  0.41640492    -0.60800
H1079       H  0.17060331  0.79665675  0.44325923     0.43200
H1080       H  0.02965461  0.80718424  0.31441266     0.43200
C1081       C  0.91418257  0.76038450  0.38880067    -0.05900
C1082       C  0.90122322  0.71954207  0.37016197    -0.33300
C1083       C  0.87422059  0.71784772  0.33234214     0.36000
C1084       C  0.85995463  0.75788535  0.31096568    -0.06200
C1085       C  0.87106632  0.79890349  0.33240570    -0.33200
C1086       C  0.89770376  0.80018034  0.37164013     0.35900
H1087       H  0.91302032  0.68840968  0.38347676     0.16200
O1088       O  0.86522131  0.67699784  0.31129563    -0.60700
H1089       H  0.86098127  0.82994603  0.31612861     0.16200
O1090       O  0.90915677  0.84056690  0.39015513    -0.60800
H1091       H  0.93309783  0.84406706  0.37500858     0.43200
H1092       H  0.85901724  0.65764111  0.34170987     0.43200
C1093       C  0.86633365  0.67900224  0.14522369    -0.05900
C1094       C  0.86154031  0.67911395  0.08984429    -0.33300
C1095       C  0.89091360  0.67931399  0.05628004     0.36000
C1096       C  0.92513650  0.67829102  0.07821404    -0.06200
C1097       C  0.92946436  0.66722560  0.13149070    -0.33200
C1098       C  0.89990685  0.66535673  0.16484939     0.35900
H1099       H  0.83554626  0.68372918  0.07256494     0.16200
O1100       O  0.88607291  0.68502786  0.00279847    -0.60700
H1101       H  0.95581276  0.66393251  0.14815702     0.16200
O1102       O  0.90425299  0.65494857  0.21756998    -0.60800
H1103       H  0.92492935  0.67202444  0.23086474     0.43200
H1104       H  0.88254865  0.71765698  0.99789214     0.43200
C1105       C  0.42593377  0.78311713  0.35874172    -0.05900
C1106       C  0.43239795  0.80110040  0.40909920    -0.33300
C1107       C  0.40528464  0.80282476  0.44676237     0.36000
C1108       C  0.37182857  0.78398374  0.43491917    -0.06200
C1109       C  0.36425169  0.77172639  0.38247924    -0.33200
C1110       C  0.39106266  0.77169718  0.34428886     0.35900
H1111       H  0.45887373  0.81132069  0.42019250     0.16200
O1112       O  0.41312607  0.81740033  0.49713663    -0.60700
H1113       H  0.33876248  0.75758092  0.37242091     0.16200
O1114       O  0.38376176  0.75591961  0.29438072    -0.60800
H1115       H  0.38225023  0.78284139  0.27170930     0.43200
H1116       H  0.39675946  0.84277471  0.50404162     0.43200
C1117       C  0.41695424  0.68314496  0.17062593    -0.05900
C1118       C  0.38184046  0.68525685  0.18777077    -0.33300
C1119       C  0.35428318  0.68379098  0.15050859     0.36000
C1120       C  0.36240696  0.68324627  0.09582355    -0.06200
C1121       C  0.39638857  0.66789855  0.08158942    -0.33200
C1122       C  0.42408757  0.67026048  0.11820382     0.35900
H1123       H  0.37586945  0.69148919  0.22901612     0.16200
O1124       O  0.31998013  0.68694920  0.16755869    -0.60700
H1125       H  0.40274526  0.66156576  0.04040296     0.16200
O1126       O  0.45824049  0.66642943  0.10058283    -0.60800
H1127       H  0.46881932  0.64101334  0.12036420     0.43200
H1128       H  0.31167850  0.65562728  0.16975928     0.43200
C1129       C  0.59067520  0.79325246  0.31498258    -0.05900
C1130       C  0.59205726  0.83093495  0.34807403    -0.33300
C1131       C  0.62038383  0.83603923  0.38390026     0.36000
C1132       C  0.64720154  0.80304449  0.38688770    -0.06200
C1133       C  0.64926594  0.77115478  0.34607193    -0.33200
C1134       C  0.62092952  0.76569087  0.31067694     0.35900
H1135       H  0.56947252  0.85329846  0.35075969     0.16200
O1136       O  0.61881636  0.86899412  0.42173487    -0.60700
H1137       H  0.66996339  0.74604065  0.34667664     0.16200
O1138       O  0.62138178  0.73032930  0.27584924    -0.60800
H1139       H  0.63014467  0.74289185  0.24212905     0.43200
H1140       H  0.60038573  0.85949128  0.44703955     0.43200
C1141       C  0.56450956  0.69977510  0.12903729    -0.05900
C1142       C  0.59974331  0.68806831  0.13968674    -0.33300
C1143       C  0.62563615  0.69280596  0.10024184     0.36000
C1144       C  0.61616317  0.71057546  0.05006329    -0.06200
C1145       C  0.57988825  0.71295494  0.03735740    -0.33200
C1146       C  0.55429006  0.70872782  0.07659389     0.35900
H1147       H  0.60770284  0.67880339  0.17946678     0.16200
O1148       O  0.66028535  0.68227091  0.11161530    -0.60700
H1149       H  0.57075066  0.72029933  0.99778721     0.16200
O1150       O  0.51954460  0.71743751  0.06430750    -0.60800
H1151       H  0.51199820  0.69222961  0.04128605     0.43200
H1152       H  0.66703493  0.70086282  0.14264392     0.43200
C1153       C  0.38153426  0.55183153  0.06783614    -0.05900
C1154       C  0.36978312  0.06183116  0.11823628    -0.33300
C1155       C  0.39579700  0.06592476  0.15749001     0.36000
C1156       C  0.43140491  0.06064133  0.14368865    -0.06200
C1157       C  0.44327231  0.55380380  0.09494125    -0.33200
C1158       C  0.41776445  0.55409104  0.05445849     0.35900
H1159       H  0.34239891  0.06423907  0.13016474     0.16200
O1160       O  0.38609221  0.06851255  0.20979320    -0.60700
H1161       H  0.47103143  0.55066377  0.08494430     0.16200
O1162       O  0.42811651  0.55670594  0.00236022    -0.60800
H1163       H  0.44703346  0.53394944  0.99724658     0.43200
H1164       H  0.37369732  0.09752895  0.21387107     0.43200
C1165       C  0.41908111  0.96212663  0.33496263    -0.05900
C1166       C  0.38366067  0.47661245  0.32810390    -0.33300
C1167       C  0.35534928  0.47314316  0.36366512     0.36000
C1168       C  0.36499801  0.95418723  0.41151631    -0.06200
C1169       C  0.39671075  0.92918049  0.41597395    -0.33200
C1170       C  0.42391600  0.93375158  0.37863270     0.35900
H1171       H  0.38067097  0.49763083  0.29348735     0.16200
O1172       O  0.32478246  0.49633596  0.35332415    -0.60700
H1173       H  0.40251222  0.91152461  0.45238569     0.16200
O1174       O  0.45631266  0.91446314  0.38830579    -0.60800
H1175       H  0.46882908  0.93566472  0.41207851     0.43200
H1176       H  0.30897867  0.47449527  0.33562920     0.43200
C1177       C  0.62935676  0.47275718  0.44695188    -0.05900
C1178       C  0.63870827  0.47600057  0.39339986    -0.33300
C1179       C  0.61284666  0.47161957  0.35365451     0.36000
C1180       C  0.57715263  0.46611994  0.36757227    -0.06200
C1181       C  0.56957658  0.96213867  0.41203772    -0.33200
C1182       C  0.59542230  0.96040582  0.45197987     0.35900
H1183       H  0.66518165  0.48588637  0.38244524     0.16200
O1184       O  0.62207197  0.47743563  0.30175039    -0.60700
H1185       H  0.54222336  0.95537510  0.42165927     0.16200
O1186       O  0.58633489  0.94596272  0.50176570    -0.60800
H1187       H  0.56572285  0.96431237  0.51297697     0.43200
H1188       H  0.62934657  0.44735274  0.28909896     0.43200
C1189       C  0.63779113  0.57279080  0.10069675    -0.05900
C1190       C  0.64585156  0.07583089  0.15392954    -0.33300
C1191       C  0.61796513  0.07626527  0.19034598     0.36000
C1192       C  0.58297565  0.56653748  0.17513073    -0.06200
C1193       C  0.57557290  0.58192420  0.12392109    -0.33200
C1194       C  0.60314825  0.58739625  0.08724652     0.35900
H1195       H  0.67235820  0.06961590  0.16853036     0.16200
O1196       O  0.62486933  0.06926355  0.24300304    -0.60700
H1197       H  0.54839066  0.58715356  0.11147452     0.16200
O1198       O  0.59598895  0.60296435  0.03700570    -0.60800
H1199       H  0.57453581  0.58734997  0.02413541     0.43200
H1200       H  0.63136911  0.09903884  0.25741282     0.43200
O1201       O  0.47220132  0.00176454  0.68256184    -0.73300
O1202       O  0.54301652  0.95404205  0.78721590    -0.74300
O1203       O  0.46655869  0.94881979  0.77584532    -0.62900
O1204       O  0.54588223  0.00731625  0.69408497    -0.71400
O1205       O  0.53816999  0.57988851  0.74121339    -0.70900
O1206       O  0.45668141  0.52185712  0.81631298    -0.62200
O1207       O  0.53192959  0.52672873  0.83421309    -0.74700
O1208       O  0.46374281  0.57304834  0.72340551    -0.73400
Cu1209     Cu  0.50711860  0.97562023  0.73341331     1.04600
Cu1210     Cu  0.49735925  0.55248206  0.78067303     1.04300
C1211       C  0.45875311  0.04076492  0.68820774     0.92900
C1212       C  0.54784358  0.48924284  0.82711535     0.92000
C1213       C  0.44951875  0.97281410  0.80938388     0.84100
C1214       C  0.55428267  0.55760238  0.70535831     0.90400
C1215       C  0.35036544  0.52831395  0.53099372     0.86100
C1216       C  0.36809402  0.98941046  0.99517685    -0.54100
C1217       C  0.34535685  0.96967823  0.95996541     0.09000
C1218       C  0.30642014  0.98618408  0.96746080     0.20000
C1219       C  0.33142728  0.55905445  0.49233497    -0.54900
C1220       C  0.30866919  0.53996635  0.96486072     0.09100
C1221       C  0.32674478  0.00163880  0.56237448    -0.54400
C1222       C  0.30346865  0.97816895  0.53173852     0.09700
H1223       H  0.39609421  0.98161848  0.99525957     0.14200
H1224       H  0.28693025  0.96923657  0.94128778    -0.00100
H1225       H  0.33810625  0.59391807  0.48860977     0.14500
H1226       H  0.32756682  0.99773258  0.60510043     0.14300
C1227       C  0.66082549  0.54776801  0.56155607     0.86100
C1228       C  0.68627371  0.01319545  0.58129142    -0.54100
C1229       C  0.70320372  0.98687440  0.54514496     0.09000
C1230       C  0.69312175  0.49828086  0.98736765     0.20000
C1231       C  0.68406337  0.57426068  0.52334488    -0.54900
C1232       C  0.70016797  0.54957983  0.98312068     0.09100
C1233       C  0.63608327  0.52052402  0.52585354    -0.54400
C1234       C  0.65291918  0.99661341  0.98615891     0.09700
H1235       H  0.68901250  0.00683249  0.62336568     0.14200
H1236       H  0.70746422  0.97741290  0.96029205    -0.00100
H1237       H  0.68662232  0.61022350  0.52578075     0.14500
H1238       H  0.60750738  0.52084677  0.02558234     0.14300
O1239       O  0.45806290  0.79939237  0.78292369    -0.73300
O1240       O  0.52398860  0.75966918  0.66898853    -0.74300
O1241       O  0.45178557  0.74814055  0.68921406    -0.62900
O1242       O  0.53327788  0.80961104  0.76383069    -0.71400
O1243       O  0.54386964  0.74524815  0.80463538    -0.70900
O1244       O  0.46310886  0.68476818  0.73201435    -0.62200
O1245       O  0.53614035  0.69601608  0.71051882    -0.74700
O1246       O  0.46930070  0.73625533  0.82611920    -0.73400
Cu1247     Cu  0.49135039  0.78155129  0.72498313     1.04600
Cu1248     Cu  0.50346512  0.71358233  0.77029032     1.04300
C1249       C  0.45215177  0.77312272  0.82144365     0.92900
C1250       C  0.54008409  0.72209070  0.67101188     0.92000
C1251       C  0.44532308  0.70687674  0.69800948     0.84100
C1252       C  0.55260098  0.78541940  0.79426376     0.90400
C1253       C  0.34418462  0.71075902  0.55162627     0.86100
C1254       C  0.32325416  0.74827885  0.57826413    -0.54100
C1255       C  0.30520536  0.77573825  0.54475739     0.09000
C1256       C  0.30932231  0.76339974  0.98610468     0.20000
C1257       C  0.31739151  0.68649763  0.51677418    -0.54900
C1258       C  0.30024056  0.71275072  0.98164166     0.09100
C1259       C  0.36646673  0.73766071  0.01834708    -0.54400
C1260       C  0.35012352  0.76404146  0.98178265     0.09700
H1261       H  0.32379507  0.75442104  0.62067175     0.14200
H1262       H  0.29565133  0.78483567  0.95650871    -0.00100
H1263       H  0.31237143  0.65118637  0.52029241     0.14500
H1264       H  0.39500415  0.73402736  0.01906985     0.14300
C1265       C  0.64503657  0.73737327  0.51378751     0.86100
C1266       C  0.62939604  0.76590539  0.97349260    -0.54100
C1267       C  0.65426258  0.78638103  0.94320729     0.09000
C1268       C  0.69283713  0.77378037  0.95927212     0.20000
C1269       C  0.66810514  0.70345535  0.48433233    -0.54900
C1270       C  0.69320810  0.72160829  0.95416009     0.09100
C1271       C  0.67026089  0.76571582  0.54640086    -0.54400
C1272       C  0.69687440  0.78575660  0.51933579     0.09700
H1273       H  0.60157833  0.77095002  0.96525739     0.14200
H1274       H  0.71324916  0.79081913  0.93533212    -0.00100
H1275       H  0.66220121  0.66807567  0.48372887     0.14500
H1276       H  0.66573453  0.77170394  0.58831800     0.14300
O1277       O  0.96658786  0.72129266  0.92094990    -0.73300
O1278       O  0.04774499  0.71048278  0.52133606    -0.74300
O1279       O  0.97507946  0.68321872  0.51661396    -0.62900
O1280       O  0.03925556  0.74882300  0.92641038    -0.71400
O1281       O  0.02381423  0.81308031  0.96464764    -0.70900
O1282       O  0.95943745  0.74693019  0.55601407    -0.62200
O1283       O  0.03213512  0.77401987  0.56089463    -0.74700
O1284       O  0.95093893  0.78580119  0.95804608    -0.73400
Cu1285     Cu  0.00716752  0.71174217  0.97136066     1.04600
Cu1286     Cu  0.98980886  0.78025459  0.01187112     1.04300
C1287       C  0.94545493  0.75479503  0.92412996     0.92900
C1288       C  0.05344108  0.74083860  0.55593559     0.92000
C1289       C  0.95597792  0.70475250  0.54968276     0.84100
C1290       C  0.04289626  0.79105920  0.93193988     0.90400
C1291       C  0.15572455  0.78981057  0.79626618     0.86100
C1292       C  0.17768031  0.75372656  0.82283728    -0.54100
C1293       C  0.19981208  0.73037599  0.79028967     0.09000
C1294       C  0.19754190  0.74601278  0.73062287     0.20000
C1295       C  0.18305674  0.81907607  0.76762176    -0.54900
C1296       C  0.20412730  0.79704122  0.73148961     0.09100
C1297       C  0.13661427  0.76336199  0.75257356    -0.54400
C1298       C  0.15775408  0.74299072  0.71634138     0.09700
H1299       H  0.17476653  0.74533198  0.86429846     0.14200
H1300       H  0.21488017  0.72698591  0.70307341    -0.00100
H1301       H  0.18535007  0.85420546  0.77550802     0.14500
H1302       H  0.10817062  0.76394247  0.74659385     0.14300
C1303       C  0.84238589  0.70761907  0.68146328     0.86100
C1304       C  0.86244289  0.73622173  0.72216157    -0.54100
C1305       C  0.84222979  0.75629936  0.75967967     0.09000
C1306       C  0.80213794  0.75303422  0.74724974     0.20000
C1307       C  0.81659225  0.67856625  0.71368103    -0.54900
C1308       C  0.79519358  0.70215610  0.74801861     0.09100
C1309       C  0.81905558  0.74245975  0.65434994    -0.54400
C1310       C  0.79850582  0.76732126  0.68758946     0.09700
H1311       H  0.89104236  0.73664784  0.72562985     0.14200
H1312       H  0.78549736  0.77289143  0.77495857    -0.00100
H1313       H  0.81710404  0.64226097  0.71220826     0.14500
H1314       H  0.82053808  0.74997316  0.61242899     0.14300
O1315       O  0.03681712  0.50207179  0.93328761    -0.73300
O1316       O  0.96202814  0.54603296  0.53441469    -0.74300
O1317       O  0.03827294  0.55178092  0.53218150    -0.62900
O1318       O  0.96296525  0.49851251  0.93632694    -0.71400
O1319       O  0.96628795  0.93150668  0.98267208    -0.70900
O1320       O  0.04208215  0.98678050  0.57518148    -0.62200
O1321       O  0.96618839  0.98216460  0.57609976    -0.74700
O1322       O  0.04166588  0.93602633  0.97941677    -0.73400
Cu1323     Cu  0.99990065  0.52744104  0.98160704     1.04600
Cu1324     Cu  0.00373260  0.95613520  0.03107328     1.04300
C1325       C  0.05125968  0.96150698  0.94163820     0.92900
C1326       C  0.95157564  0.02026579  0.56830958     0.92000
C1327       C  0.05277759  0.02667560  0.56754559     0.84100
C1328       C  0.95339593  0.95557175  0.94563836     0.90400
C1329       C  0.15749872  0.97668675  0.78855623     0.86100
C1330       C  0.13873405  0.01382246  0.75754405    -0.54100
C1331       C  0.15866893  0.03493193  0.72022803     0.09000
C1332       C  0.19831303  0.02060516  0.72286724     0.20000
C1333       C  0.17457858  0.94744682  0.74603851    -0.54900
C1334       C  0.19739391  0.96926589  0.71348158     0.09100
C1335       C  0.18541170  0.50112066  0.81582748    -0.54400
C1336       C  0.20662594  0.52644423  0.78427563     0.09700
H1337       H  0.11047735  0.01936242  0.76075496     0.14200
H1338       H  0.21529578  0.53993568  0.69776491    -0.00100
H1339       H  0.16830677  0.91274087  0.74071910     0.14500
H1340       H  0.18691026  0.50372603  0.85867267     0.14300
C1341       C  0.84670442  0.96158896  0.79737971     0.86100
C1342       C  0.81976428  0.49468006  0.82371637    -0.54100
C1343       C  0.79877520  0.51891393  0.79039435     0.09000
C1344       C  0.80507051  0.50676276  0.73035040     0.20000
C1345       C  0.82439528  0.93229897  0.76041086    -0.54900
C1346       C  0.80405015  0.95567877  0.72490191     0.09100
C1347       C  0.86531100  0.49127449  0.75850329    -0.54400
C1348       C  0.84534702  0.51413342  0.72265348     0.09700
H1349       H  0.82048868  0.50196885  0.86579481     0.14200
H1350       H  0.78831111  0.52576589  0.70196984    -0.00100
H1351       H  0.82552176  0.89599164  0.76103699     0.14500
H1352       H  0.89393512  0.49308966  0.75781644     0.14300
O1353       O  0.74905563  0.59049873  0.94664058    -0.73300
O1354       O  0.79116947  0.67255792  0.83559232    -0.74300
O1355       O  0.74704548  0.68423187  0.92862769    -0.62900
O1356       O  0.79327698  0.57886423  0.85306550    -0.71400
O1357       O  0.74783350  0.56901317  0.79870427    -0.70900
O1358       O  0.69962876  0.67297884  0.87843809    -0.62200
O1359       O  0.74472290  0.66306874  0.78306512    -0.74700
O1360       O  0.70308109  0.57832273  0.89385508    -0.73400
Cu1361     Cu  0.77179729  0.63186252  0.89238151     1.04600
Cu1362     Cu  0.72211776  0.62078501  0.83668509     1.04300
C1363       C  0.71883161  0.57257864  0.93852335     0.92900
C1364       C  0.77561480  0.67909942  0.79119110     0.92000
C1365       C  0.71485558  0.69333560  0.91722535     0.84100
C1366       C  0.77893569  0.55787295  0.81403685     0.90400
O1367       O  0.79416979  0.82576458  0.62397165    -0.73300
O1368       O  0.75054353  0.93179863  0.54747548    -0.74300
O1369       O  0.79760758  0.92060414  0.63908212    -0.62900
O1370       O  0.74761169  0.83563592  0.53364357    -0.71400
O1371       O  0.70579367  0.83258027  0.59441672    -0.70900
O1372       O  0.75270255  0.91739324  0.69510117    -0.62200
O1373       O  0.70709130  0.92676258  0.60576252    -0.74700
O1374       O  0.75167030  0.82291475  0.68399212    -0.73400
Cu1375     Cu  0.77423757  0.87872785  0.58406858     1.04600
Cu1376     Cu  0.72768150  0.87495708  0.64624289     1.04300
C1377       C  0.78053280  0.80757735  0.66504985     0.92900
C1378       C  0.72110541  0.94600309  0.56578364     0.92000
C1379       C  0.78344885  0.93137512  0.68362508     0.84100
C1380       C  0.71813516  0.81987082  0.54955130     0.90400
O1381       O  0.30092089  0.58489799  0.88752462    -0.73300
O1382       O  0.25008647  0.67950560  0.79868674    -0.74300
O1383       O  0.29606741  0.68018951  0.89367634    -0.62900
O1384       O  0.25369546  0.58216461  0.79549012    -0.71400
O1385       O  0.20951630  0.58035542  0.85263195    -0.70900
O1386       O  0.25081087  0.67264275  0.94840632    -0.62200
O1387       O  0.20632791  0.67438726  0.85627752    -0.74700
O1388       O  0.25521232  0.57847039  0.94166875    -0.73400
Cu1389     Cu  0.27683447  0.63194271  0.84157022     1.04600
Cu1390     Cu  0.22882206  0.62646060  0.90093125     1.04300
C1391       C  0.28672977  0.56766873  0.92859843     0.92900
C1392       C  0.21971989  0.69232307  0.81491104     0.92000
C1393       C  0.28078680  0.68954487  0.93793058     0.84100
C1394       C  0.22437811  0.56526005  0.81084927     0.90400
O1395       O  0.25438702  0.83924665  0.70254225    -0.73300
O1396       O  0.29809574  0.92666534  0.60227604    -0.74300
O1397       O  0.25142192  0.93278516  0.69043602    -0.62900
O1398       O  0.29990759  0.83244516  0.61094869    -0.71400
O1399       O  0.25704406  0.82896310  0.55090357    -0.70900
O1400       O  0.20594651  0.92546951  0.63521956    -0.62200
O1401       O  0.25411743  0.92550240  0.54425949    -0.73100
O1402       O  0.21087328  0.83063145  0.64457598    -0.73400
Cu1403     Cu  0.27769075  0.88293316  0.65282934     1.04600
Cu1404     Cu  0.23041250  0.87740118  0.59154948     1.04300
C1405       C  0.22455508  0.82237356  0.69038683     0.92900
C1406       C  0.28399671  0.94123815  0.55945071     0.92000
C1407       C  0.21982965  0.94299788  0.67665379     0.84100
C1408       C  0.28666720  0.81493224  0.56878482     0.90400
C1409       C  0.08292378  0.04297631  0.59907348    -0.05900
C1410       C  0.11691554  0.02763763  0.58633948    -0.33300
C1411       C  0.14496935  0.03208680  0.62243318     0.36000
C1412       C  0.13892491  0.05159988  0.67262661    -0.06200
C1413       C  0.10629280  0.07366085  0.68108895    -0.33200
C1414       C  0.07789950  0.06756864  0.64589440     0.35900
H1415       H  0.12109378  0.00908306  0.54997688     0.16200
O1416       O  0.17671345  0.01234005  0.61053887    -0.60700
H1417       H  0.10123697  0.09007441  0.71871341     0.16200
O1418       O  0.04489874  0.08302900  0.65932304    -0.60800
H1419       H  0.03567545  0.06093295  0.68491852     0.43200
H1420       H  0.19009043  0.03536564  0.59099977     0.43200
C1421       C  0.13214612  0.95250576  0.82645437    -0.05900
C1422       C  0.14087631  0.94637095  0.88041456    -0.33300
C1423       C  0.11433497  0.94459063  0.91906436     0.36000
C1424       C  0.07868743  0.94710698  0.90364757    -0.06200
C1425       C  0.07011604  0.94320652  0.84971299    -0.33200
C1426       C  0.09676932  0.94406260  0.81104443     0.35900
H1427       H  0.16810711  0.94609338  0.89362018     0.16200
O1428       O  0.12339403  0.94375647  0.97179658    -0.60700
H1429       H  0.04265155  0.94213639  0.83741043     0.16200
O1430       O  0.08804329  0.93946369  0.75830665    -0.60800
H1431       H  0.06907664  0.96167759  0.75092327     0.43200
H1432       H  0.13769250  0.97097225  0.97806140     0.43200
C1433       C  0.92631371  0.93786616  0.91009055    -0.05900
C1434       C  0.89138366  0.93456044  0.92756388    -0.33300
C1435       C  0.86357515  0.93299210  0.89049351     0.36000
C1436       C  0.87121417  0.93619325  0.83573723    -0.06200
C1437       C  0.90630560  0.92741757  0.81986294    -0.33200
C1438       C  0.93396189  0.93120794  0.85635143     0.35900
H1439       H  0.88552376  0.93675898  0.96950673     0.16200
O1440       O  0.82924332  0.92879062  0.90753020    -0.60700
H1441       H  0.91279570  0.92424400  0.77824407     0.16200
O1442       O  0.96821026  0.93202125  0.83870682    -0.60800
H1443       H  0.97640961  0.90047772  0.83980429     0.43200
H1444       H  0.82584396  0.95096832  0.93647289     0.43200
C1445       C  0.86427102  0.53457784  0.67693147    -0.05900
C1446       C  0.89641249  0.55658073  0.68787094    -0.33300
C1447       C  0.92465069  0.55457716  0.65214581     0.36000
C1448       C  0.92130323  0.03339284  0.60152008    -0.06200
C1449       C  0.88721067  0.01865119  0.58812376    -0.33200
C1450       C  0.85987196  0.01969619  0.62574206     0.35900
H1451       H  0.90131824  0.56979707  0.72726826     0.16200
O1452       O  0.95702357  0.57104253  0.66692924    -0.60700
H1453       H  0.88249215  0.00308560  0.54987235     0.16200
O1454       O  0.82805947  0.00072378  0.61313545    -0.60800
H1455       H  0.81499091  0.02388302  0.59287723     0.43200
H1456       H  0.96815061  0.54710611  0.68848738     0.43200
C1457       C  0.08569494  0.73919157  0.58902645    -0.05900
C1458       C  0.10140335  0.77957460  0.60348861    -0.33300
C1459       C  0.12963116  0.78065008  0.63919331     0.36000
C1460       C  0.14229632  0.74046969  0.66224405    -0.06200
C1461       C  0.12863475  0.69957226  0.64415977    -0.33200
C1462       C  0.10061899  0.69875579  0.60731966     0.35900
H1463       H  0.09062317  0.81092166  0.58900877     0.16200
O1464       O  0.14036444  0.82142953  0.65854501    -0.60700
H1465       H  0.13740084  0.66859602  0.66219744     0.16200
O1466       O  0.08642163  0.65853330  0.59253108    -0.60800
H1467       H  0.06298990  0.65754659  0.60993019     0.43200
H1468       H  0.14526595  0.84031967  0.62725427     0.43200
C1469       C  0.12946490  0.81467086  0.83310830    -0.05900
C1470       C  0.09515586  0.82529316  0.81415186    -0.33300
C1471       C  0.06578890  0.82212457  0.84753048     0.36000
C1472       C  0.07086012  0.81299756  0.90141205    -0.06200
C1473       C  0.10521130  0.81444887  0.92251969    -0.33200
C1474       C  0.13465962  0.81616453  0.88864199     0.35900
H1475       H  0.09046521  0.83051468  0.77227076     0.16200
O1476       O  0.03230097  0.82434338  0.82647080    -0.60700
H1477       H  0.10933259  0.81017337  0.96474080     0.16200
O1478       O  0.16828705  0.81814566  0.90953424    -0.60800
H1479       H  0.17001046  0.79437389  0.93674441     0.43200
H1480       H  0.02659535  0.79330508  0.81555412     0.43200
C1481       C  0.91388326  0.75641971  0.88929128    -0.05900
C1482       C  0.89976936  0.71616484  0.87092384    -0.33300
C1483       C  0.87224157  0.71571430  0.83392735     0.36000
C1484       C  0.85862621  0.75649176  0.81344140    -0.06200
C1485       C  0.87077984  0.79689902  0.83504453    -0.33200
C1486       C  0.89810228  0.79697983  0.87304875     0.35900
H1487       H  0.91112775  0.68458248  0.88359146     0.16200
O1488       O  0.86261526  0.67544560  0.81188438    -0.60700
H1489       H  0.86130840  0.82840400  0.81917999     0.16200
O1490       O  0.91103787  0.83694128  0.89084525    -0.60800
H1491       H  0.93375010  0.84069608  0.87194420     0.43200
H1492       H  0.85729317  0.65518358  0.84184174     0.43200
C1493       C  0.86822994  0.68211555  0.64505198    -0.05900
C1494       C  0.86354350  0.68348299  0.58969271    -0.33300
C1495       C  0.89286046  0.68514258  0.55622418     0.36000
C1496       C  0.92711015  0.68270755  0.57779555    -0.06200
C1497       C  0.93145759  0.67042870  0.63077609    -0.33200
C1498       C  0.90192397  0.66841954  0.66433928     0.35900
H1499       H  0.83755725  0.68836932  0.57249442     0.16200
O1500       O  0.88792233  0.69403224  0.50338590    -0.60700
H1501       H  0.95781736  0.66630315  0.64715399     0.16200
O1502       O  0.90632495  0.65695941  0.71675725    -0.60800
H1503       H  0.92707338  0.67367195  0.73039101     0.43200
H1504       H  0.88548166  0.72701087  0.50109488     0.43200
C1505       C  0.42363847  0.78376794  0.85905100    -0.05900
C1506       C  0.43182448  0.79905024  0.90999986    -0.33300
C1507       C  0.40585552  0.80005967  0.94929706     0.36000
C1508       C  0.37154459  0.78337726  0.93832837    -0.06200
C1509       C  0.36239907  0.77337744  0.88576423    -0.33200
C1510       C  0.38830334  0.77348497  0.84617717     0.35900
H1511       H  0.45879531  0.80788708  0.92006333     0.16200
O1512       O  0.41544484  0.81254476  0.99977190    -0.60700
H1513       H  0.33631555  0.76071080  0.87636353     0.16200
O1514       O  0.37964479  0.75890559  0.79630528    -0.60800
H1515       H  0.38341326  0.72610503  0.79774144     0.43200
H1516       H  0.40034140  0.83864994  0.00860471     0.43200
C1517       C  0.41853988  0.68457873  0.66555360    -0.05900
C1518       C  0.38327041  0.68327226  0.68193283    -0.33300
C1519       C  0.35626648  0.67939542  0.64413029     0.36000
C1520       C  0.36501403  0.68063378  0.58983547    -0.06200
C1521       C  0.39974204  0.66793909  0.57614164    -0.33200
C1522       C  0.42689267  0.67237166  0.61334770     0.35900
H1523       H  0.37646593  0.68850332  0.72291556     0.16200
O1524       O  0.32165256  0.68019999  0.66011737    -0.60700
H1525       H  0.40674471  0.66218310  0.53508864     0.16200
O1526       O  0.46137233  0.67071094  0.59673871    -0.60800
H1527       H  0.47226953  0.64500091  0.61540200     0.43200
H1528       H  0.31600631  0.64868333  0.66851028     0.43200
C1529       C  0.58616984  0.80182546  0.81733807    -0.05900
C1530       C  0.58583967  0.83510461  0.85653872    -0.33300
C1531       C  0.61339138  0.83702580  0.89418879     0.36000
C1532       C  0.64151521  0.80570806  0.89231461    -0.06200
C1533       C  0.64493586  0.77872558  0.84704176    -0.33200
C1534       C  0.61723922  0.77619054  0.81001975     0.35900
H1535       H  0.56236800  0.85549750  0.86230616     0.16200
O1536       O  0.60992531  0.86431937  0.93767763    -0.60700
H1537       H  0.66623986  0.75443370  0.84466936     0.16200
O1538       O  0.61877533  0.74427429  0.77084483    -0.60800
H1539       H  0.62556567  0.76065732  0.73837424     0.43200
H1540       H  0.58983473  0.85231847  0.95818404     0.43200
C1541       C  0.56413408  0.71055640  0.62744407    -0.05900
C1542       C  0.59874984  0.69629865  0.63824470    -0.33300
C1543       C  0.62480738  0.69882208  0.59885329     0.36000
C1544       C  0.61619201  0.71697405  0.54855641    -0.06200
C1545       C  0.58012672  0.72236963  0.53582095    -0.33200
C1546       C  0.55438047  0.72046711  0.57505440     0.35900
H1547       H  0.60620675  0.68636673  0.67802108     0.16200
O1548       O  0.65890730  0.68577131  0.61037442    -0.60700
H1549       H  0.57131434  0.73021651  0.49625544     0.16200
O1550       O  0.52009269  0.73178110  0.56267659    -0.60800
H1551       H  0.51155083  0.70765236  0.53887419     0.43200
H1552       H  0.66659738  0.70426985  0.64098755     0.43200
C1553       C  0.37726539  0.55191475  0.56702718    -0.05900
C1554       C  0.37211514  0.06203069  0.62199100    -0.33300
C1555       C  0.39790424  0.06346138  0.66177417     0.36000
C1556       C  0.43341588  0.05624690  0.64834951    -0.06200
C1557       C  0.43946034  0.56009152  0.58998202    -0.33200
C1558       C  0.41281655  0.55739994  0.55122027     0.35900
H1559       H  0.34464275  0.06474577  0.63348514     0.16200
O1560       O  0.38767329  0.06552634  0.71382289    -0.60700
H1561       H  0.46697310  0.55933327  0.57813035     0.16200
O1562       O  0.42149805  0.55914500  0.49837449    -0.60800
H1563       H  0.44050658  0.53659270  0.49266338     0.43200
H1564       H  0.39240338  0.09667431  0.72529895     0.43200
C1565       C  0.41756253  0.95591949  0.83636258    -0.05900
C1566       C  0.38302230  0.48388247  0.82515913    -0.33300
C1567       C  0.35556558  0.47858705  0.86180567     0.36000
C1568       C  0.36185873  0.95100179  0.91052531    -0.06200
C1569       C  0.39237266  0.92385216  0.91597368    -0.33200
C1570       C  0.42039575  0.92681991  0.87973758     0.35900
H1571       H  0.37922681  0.50648879  0.79219190     0.16200
O1572       O  0.32443751  0.50119287  0.85386828    -0.60700
H1573       H  0.39670788  0.90557281  0.95238668     0.16200
O1574       O  0.45171086  0.90516836  0.89032115    -0.60800
H1575       H  0.46601580  0.92680631  0.91107565     0.43200
H1576       H  0.30765155  0.47841255  0.84041633     0.43200
C1577       C  0.62991026  0.47479707  0.94182271    -0.05900
C1578       C  0.63850429  0.48286616  0.88875370    -0.33300
C1579       C  0.61204012  0.48218372  0.84953587     0.36000
C1580       C  0.57646119  0.47595742  0.86371635    -0.06200
C1581       C  0.57099346  0.95527633  0.91640114    -0.33200
C1582       C  0.59673446  0.95869134  0.95637980     0.35900
H1583       H  0.66489195  0.49348064  0.87830059     0.16200
O1584       O  0.62072089  0.49135173  0.79816851    -0.60700
H1585       H  0.54402115  0.94711053  0.92682390     0.16200
O1586       O  0.58814687  0.94745805  0.00751763    -0.60800
H1587       H  0.56728058  0.96603215  0.01713889     0.43200
H1588       H  0.62573473  0.46182408  0.78169760     0.43200
C1589       C  0.63906949  0.57513084  0.60204392    -0.05900
C1590       C  0.64601263  0.07041582  0.65373657    -0.33300
C1591       C  0.61863334  0.06723927  0.69071438     0.36000
C1592       C  0.58341369  0.57756841  0.67522077    -0.06200
C1593       C  0.57739538  0.59111781  0.62296214    -0.33200
C1594       C  0.60561292  0.59270245  0.58692344     0.35900
H1595       H  0.67292268  0.06597825  0.66751647     0.16200
O1596       O  0.62658009  0.05913406  0.74277535    -0.60700
H1597       H  0.55064665  0.59757025  0.60925384     0.16200
O1598       O  0.59985340  0.60683378  0.53572228    -0.60800
H1599       H  0.57819709  0.59175325  0.52274341     0.43200
H1600       H  0.62843578  0.08913392  0.75950081     0.43200
loop_ 
_geom_bond_atom_site_label_1 
_geom_bond_atom_site_label_2 
_geom_bond_distance 
_geom_bond_site_symmetry_2 
_ccdc_geom_bond_type 
O1           Cu9   1.996       .  S
O1           C11   1.277       .  A
O2           Cu9   2.012       .  S
O2          C812   1.275       .  A
O3           Cu9   2.041       .  S
O3           C13   1.280       .  A
O4           Cu9   2.018       .  S
O4          C814   1.280       .  A
O5          Cu10   2.016       .  S
O5           C14   1.276       .  A
O6          Cu10   2.011       .  S
O6          C813   1.277   1_545  A
O7          Cu10   2.025       .  S
O7           C12   1.281   1_545  A
O8          Cu10   2.016       .  S
O8          C811   1.278       .  A
Cu9        Cu810   2.377       .  S
Cu10       Cu809   2.377   1_545  S
C11         O808   1.276       .  A
C11         C356   1.464       .  S
C12         O802   1.274       .  A
C12         C380   1.472       .  S
C13         O806   1.278       .  A
C13         C365   1.480       .  S
C14         O804   1.280       .  A
C14         C392   1.470       .  S
C15          C19   1.518   1_554  S
C15        C1216   1.534   1_544  S
C15         C821   1.524       .  S
C15         C353   1.533       .  S
C16        C1215   1.530       .  S
C16          H23   1.083       .  S
C16          C17   1.367       .  D
C17          C18   1.561       .  S
C17         C368   1.498       .  S
C18         C422   1.568       .  S
C18         C820   1.566       .  S
C18          H24   1.110       .  S
C19          H25   1.081       .  S
C19         C420   1.362       .  D
C20         C818   1.565   1_545  S
C20         C419   1.365       .  D
C20         C191   1.491       .  S
C21         C815   1.527       .  S
C21          H26   1.085       .  S
C21          C22   1.365       .  D
C22         C418   1.566   1_554  S
C22         C206   1.504       .  S
C27          C33   1.533       .  S
C27          C31   1.534       .  S
C27         C828   1.530       .  S
C27         C389   1.544       .  S
C28         C827   1.527       .  S
C28          H35   1.083       .  S
C28          C29   1.360       .  D
C29        C1230   1.569   1_554  S
C29         C178   1.491       .  S
C30          C32   1.559   1_565  S
C30        C1229   1.565       .  S
C30         C834   1.550       .  S
C30         H836   1.110       .  S
C31          H37   1.080       .  S
C31         C432   1.374   1_554  D
C32         C431   1.375       .  D
C32         C163   1.496       .  S
C33         H438   1.081       .  S
C33        C1234   1.356   1_544  D
C34         C830   1.549       .  S
C34        C1233   1.358       .  D
C34        C1177   1.492       .  S
H36         C830   1.110       .  S
H38         C433   1.079       .  S
O39         Cu47   2.017       .  S
O39          C49   1.276       .  A
O40         Cu47   1.994       .  S
O40          C50   1.276       .  A
O41         Cu47   2.007       .  S
O41          C51   1.279       .  A
O42         Cu47   2.038       .  S
O42          C52   1.280       .  A
O43         Cu48   2.004       .  S
O43          C52   1.278       .  A
O44         Cu48   2.008       .  S
O44          C51   1.274       .  A
O45         Cu48   2.027       .  S
O45          C50   1.279       .  A
O46         Cu48   2.042       .  S
O46          C49   1.283       .  A
Cu47        Cu48   2.376       .  S
C49         C305   1.484       .  S
C50         C341   1.470       .  S
C51         C317   1.463       .  S
C52         C329   1.480       .  S
C53          C54   1.521       .  S
C53          C57   1.524       .  S
C53         C459   1.540       .  S
C53         C320   1.535       .  S
C54          H61   1.083       .  S
C54          C55   1.361       .  D
C55         C456   1.572   1_554  S
C55         C208   1.490       .  S
C56          C60   1.554       .  S
C56          C58   1.563       .  S
C56         C455   1.576       .  S
C56          H62   1.110       .  S
C57          H63   1.080       .  S
C57         C458   1.367   1_554  D
C58         C457   1.363       .  D
C58         C193   1.490       .  S
C59         C453   1.536       .  S
C59          H64   1.084       .  S
C59          C60   1.362       .  D
C60         C308   1.496       .  S
C65          C71   1.516       .  S
C65          C69   1.524   1_554  S
C65         C466   1.534   1_554  S
C65         C344   1.536       .  S
C66         C465   1.534       .  S
C66          H73   1.081       .  S
C66          C67   1.367       .  D
C67          C68   1.554       .  S
C67         C332   1.486       .  S
C68          C70   1.562       .  S
C68         C472   1.572       .  S
C68          H74   1.110       .  S
C69          H75   1.081       .  S
C69         C470   1.367       .  D
C70         C469   1.367       .  D
C70         C165   1.489       .  S
C71          H76   1.085       .  S
C71          C72   1.362       .  D
C72         C468   1.571   1_554  S
C72         C180   1.504       .  S
O77         Cu85   2.005   1_655  S
O77          C87   1.279       .  A
O78        Cu485   2.012   1_554  S
O78          C88   1.277       .  A
O79        Cu485   2.010   1_654  S
O79          C89   1.275       .  A
O80         Cu85   2.011       .  S
O80          C90   1.279       .  A
O81         Cu86   2.014   1_455  S
O81          C90   1.276       .  A
O82        Cu486   2.004       .  S
O82          C89   1.278       .  A
O83        Cu486   2.001   1_455  S
O83          C88   1.280       .  A
O84         Cu86   2.012       .  S
O84          C87   1.277       .  A
Cu85        O478   2.016       .  S
Cu85        O479   2.015   1_455  S
Cu85        Cu86   2.375   1_455  S
Cu86        O482   2.010       .  S
Cu86        O483   2.000   1_655  S
C87         C281   1.481       .  S
C88         C257   1.479       .  S
C89         C296   1.465       .  S
C90         C272   1.469       .  S
C91          C92   1.514       .  S
C91          C97   1.539       .  S
C91          C95   1.535       .  S
C91         C269   1.543       .  S
C92          H99   1.082       .  S
C92          C93   1.364       .  D
C93          C94   1.580       .  S
C93         C192   1.495       .  S
C94          C98   1.547       .  S
C94          C96   1.552       .  S
C94         H100   1.110       .  S
C95         H101   1.072       .  S
C95          C96   1.371       .  D
C96         C205   1.503       .  S
C97         H102   1.086       .  S
C97          C98   1.358       .  D
C98         C260   1.486       .  S
C103        C104   1.534       .  S
C103        C109   1.526       .  S
C103        C107   1.543       .  S
C103        C293   1.538       .  S
C104        H111   1.085       .  S
C104        C105   1.355       .  D
C105        C106   1.550       .  S
C105        C284   1.488       .  S
C106        C110   1.569       .  S
C106        C108   1.548       .  S
C106        H112   1.110       .  S
C107        H113   1.086       .  S
C107        C108   1.375       .  D
C108        C164   1.491       .  S
C109        H114   1.084       .  S
C109        C110   1.364       .  D
C110        C177   1.491       .  S
O115       Cu123   1.999       .  S
O115        C925   1.278   1_545  A
O116       Cu523   2.025   1_554  S
O116        C926   1.277       .  A
O117       Cu523   2.018   1_454  S
O117        C927   1.277       .  A
O118       Cu123   1.993   1_665  S
O118        C928   1.276       .  A
O119       Cu124   2.007   1_655  S
O119        C128   1.276       .  A
O120       Cu524   2.015       .  S
O120        C127   1.279       .  A
O121       Cu524   2.012   1_655  S
O121        C126   1.278       .  A
O122       Cu124   2.019       .  S
O122        C125   1.277       .  A
Cu123       O516   2.017   1_455  S
Cu123       O517   2.021       .  S
Cu123      Cu924   2.380   1_545  S
Cu124       O520   2.013       .  S
Cu124       O521   2.021   1_455  S
Cu124      Cu923   2.378       .  S
C125        O915   1.278       .  A
C125        C224   1.470       .  S
C126        O916   1.277       .  A
C126        C248   1.473       .  S
C127        O917   1.278       .  A
C127        C209   1.475       .  S
C128        O918   1.276       .  A
C128        C233   1.458       .  S
C129        C130   1.529       .  S
C129        C133   1.521       .  S
C129        C935   1.528       .  S
C129        C221   1.539       .  S
C130        H137   1.083       .  S
C130        C131   1.369       .  D
C131        C132   1.557       .  S
C131        C212   1.496       .  S
C132        C134   1.556       .  S
C132        C936   1.558       .  S
C132        H938   1.110       .  S
C133        H139   1.073       .  S
C133        C134   1.364       .  D
C134        C207   1.481       .  S
C135        C929   1.529   1_545  S
C135        H140   1.084       .  S
C135        C136   1.367       .  D
C136        C932   1.560       .  S
C136        C194   1.496       .  S
H138        C932   1.110       .  S
C141        C145   1.533       .  S
C141        C942   1.526       .  S
C141        C947   1.534       .  S
C141        C236   1.538       .  S
C142        C941   1.529       .  S
C142        H149   1.083       .  S
C142        C143   1.362   1_565  D
C143        C144   1.568       .  S
C143        C166   1.496       .  S
C144        C148   1.551       .  S
C144        C946   1.558   1_545  S
C144        H150   1.110       .  S
C145        H151   1.086       .  S
C145        C146   1.371       .  D
C146        C944   1.558       .  S
C146        C179   1.490       .  S
C147        C941   1.534       .  S
C147        H152   1.084       .  S
C147        C148   1.361   1_565  D
C148        C245   1.496       .  S
O153       Cu161   2.036       .  S
O153        C163   1.279       .  A
O154       Cu161   2.020       .  S
O154        C164   1.277       .  A
O155       Cu161   2.020       .  S
O155        C165   1.275       .  A
O156       Cu161   2.020       .  S
O156        C166   1.283       .  A
O157       Cu162   2.049       .  S
O157        C166   1.278       .  A
O158       Cu162   2.050       .  S
O158        C165   1.285       .  A
O159       Cu162   2.050       .  S
O159        C164   1.281       .  A
O160       Cu162   2.056       .  S
O160        C163   1.283       .  A
Cu161      Cu162   2.367       .  S
O167       Cu175   2.018       .  S
O167        C177   1.283       .  A
O168       Cu175   2.041       .  S
O168        C178   1.276       .  A
O169       Cu175   2.067       .  S
O169        C179   1.286       .  A
O170       Cu175   2.068       .  S
O170        C180   1.280       .  A
O171       Cu176   1.991       .  S
O171        C180   1.281       .  A
O172       Cu176   2.007       .  S
O172        C179   1.273       .  A
O173       Cu176   2.016       .  S
O173        C178   1.283       .  A
O174       Cu176   2.038       .  S
O174        C177   1.276       .  A
Cu175      Cu176   2.367       .  S
O181       Cu189   2.048       .  S
O181        C191   1.283       .  A
O182       Cu189   2.051       .  S
O182        C192   1.277       .  A
O183       Cu189   2.075       .  S
O183        C193   1.287       .  A
O184       Cu189   2.074       .  S
O184        C194   1.283       .  A
O185       Cu190   1.977       .  S
O185        C194   1.276       .  A
O186       Cu190   2.005       .  S
O186        C193   1.274       .  A
O187       Cu190   2.006       .  S
O187        C192   1.283       .  A
O188       Cu190   2.031       .  S
O188        C191   1.278       .  A
Cu189      Cu190   2.366       .  S
O195       Cu203   2.015       .  S
O195        C205   1.273       .  A
O196       Cu203   1.982       .  S
O196        C206   1.277       .  A
O197       Cu203   2.020       .  S
O197        C207   1.278       .  A
O198       Cu203   2.010       .  S
O198        C208   1.283       .  A
O199       Cu204   2.040       .  S
O199        C208   1.275       .  A
O200       Cu204   2.033       .  S
O200        C207   1.280       .  A
O201       Cu204   2.086       .  S
O201        C206   1.284       .  A
O202       Cu204   2.087       .  S
O202        C205   1.290       .  A
Cu203      Cu204   2.365       .  S
C209        C210   1.403       .  A
C209        C214   1.402       .  A
C210        C211   1.404       .  A
C210        H215   1.081       .  S
C211        C212   1.411       .  A
C211        O216   1.370       .  S
C212        C213   1.411       .  A
C213        C214   1.401       .  A
C213        H217   1.084       .  S
C214        O218   1.371       .  S
O216        H220   0.991       .  S
O218        H219   0.992       .  S
C221        C222   1.411       .  A
C221        C226   1.414       .  A
C222        C223   1.402       .  A
C222        H227   1.081       .  S
C223        C224   1.401       .  A
C223        O228   1.373       .  S
C224        C225   1.401       .  A
C225        C226   1.405       .  A
C225        H229   1.083       .  S
C226        O230   1.376       .  S
O228        H232   0.991       .  S
O230        H231   0.992       .  S
C233        C234   1.398       .  A
C233        C238   1.401       .  A
C234        C235   1.405       .  A
C234        H239   1.084       .  S
C235        C236   1.417       .  A
C235        O240   1.376       .  S
C236        C237   1.411       .  A
C237        C238   1.395       .  A
C237        H241   1.083       .  S
C238        O242   1.372       .  S
O240        H244   0.992       .  S
O242        H243   0.990       .  S
C245        C246   1.410       .  A
C245       C1050   1.408       .  A
C246        C247   1.400       .  A
C246        H251   1.084       .  S
C247       C1048   1.401       .  A
C247        O252   1.371       .  S
C248        C249   1.404       .  A
C248       C1047   1.400       .  A
C249        C250   1.406       .  A
C249        H253   1.084       .  S
C250       C1045   1.409       .  A
C250        O254   1.367       .  S
O252        H256   0.992       .  S
O254        H255   0.991       .  S
C257        C258   1.397       .  A
C257        C262   1.412       .  A
C258        C259   1.392       .  A
C258        H263   1.084       .  S
C259        C260   1.415       .  A
C259        O264   1.375       .  S
C260        C261   1.405       .  A
C261        C262   1.409       .  A
C261        H265   1.083       .  S
C262        O266   1.370       .  S
O264        H268   0.992       .  S
O266        H267   0.991       .  S
C269        C270   1.413       .  A
C269        C274   1.414       .  A
C270        C271   1.400       .  A
C270        H275   1.083       .  S
C271        C272   1.400       .  A
C271        O276   1.372       .  S
C272        C273   1.402       .  A
C273        C274   1.407       .  A
C273        H277   1.084       .  S
C274        O278   1.376       .  S
O276        H280   0.991       .  S
O278        H279   0.992       .  S
C281        C282   1.396       .  A
C281        C286   1.409       .  A
C282        C283   1.395       .  A
C282        H287   1.084       .  S
C283        C284   1.417       .  A
C283        O288   1.374       .  S
C284        C285   1.404       .  A
C285        C286   1.408       .  A
C285        H289   1.084       .  S
C286        O290   1.366       .  S
O288        H292   0.993       .  S
O290        H291   0.990       .  S
C293        C294   1.407       .  A
C293        C298   1.420       .  A
C294        C295   1.398       .  A
C294        H299   1.081       .  S
C295        C296   1.404       .  A
C295        O300   1.372       .  S
C296        C297   1.396       .  A
C297        C298   1.405       .  A
C297        H301   1.084       .  S
C298        O302   1.377       .  S
O300        H304   0.992   1_554  S
O302        H303   0.992       .  S
C305        C306   1.399       .  A
C305        C310   1.410       .  A
C306        C307   1.403       .  A
C306        H311   1.084       .  S
C307        C308   1.420       .  A
C307        O312   1.374       .  S
C308        C309   1.401       .  A
C309        C310   1.410       .  A
C309        H313   1.083       .  S
C310        O314   1.371       .  S
O312        H316   0.992       .  S
O314        H315   0.989       .  S
C317        C318   1.398       .  A
C317        C322   1.404       .  A
C318        C319   1.400       .  A
C318        H323   1.079       .  S
C319        C320   1.414       .  A
C319        O324   1.371       .  S
C320        C321   1.408       .  A
C321        C322   1.395       .  A
C321        H325   1.084       .  S
C322        O326   1.371       .  S
O324        H328   0.991       .  S
O326        H327   0.991       .  S
C329        C330   1.401       .  A
C329        C334   1.410       .  A
C330        C331   1.407       .  A
C330        H335   1.084       .  S
C331        C332   1.412       .  A
C331        O336   1.369       .  S
C332        C333   1.401       .  A
C333        C334   1.402       .  A
C333        H337   1.082       .  S
C334        O338   1.371       .  S
O336        H340   0.992       .  S
O338        H339   0.991       .  S
C341        C342   1.400       .  A
C341        C346   1.403       .  A
C342        C343   1.406       .  A
C342        H347   1.083       .  S
C343        C344   1.420       .  A
C343        O348   1.376       .  S
C344        C345   1.407       .  A
C345        C346   1.395       .  A
C345        H349   1.080   1_554  S
C346        O350   1.371       .  S
O348        H352   0.992       .  S
O350        H351   0.992       .  S
C353        C358   1.414       .  A
C353       C1154   1.413       .  A
C354        C355   1.397       .  A
C354       C1153   1.413       .  A
C354        H359   1.083       .  S
C355        C356   1.403       .  A
C355        O360   1.372       .  S
C356       C1157   1.399       .  A
C357        C358   1.401       .  A
C357       C1156   1.400       .  A
C357        H361   1.084       .  S
C358        O362   1.376   1_554  S
O360        H364   0.990       .  S
O362        H363   0.993       .  S
C365        C370   1.404       .  A
C365       C1166   1.404       .  A
C366        C367   1.407       .  A
C366       C1165   1.405       .  A
C366        H371   1.083   1_565  S
C367       C1168   1.409       .  A
C367        O372   1.369       .  S
C368        C369   1.412       .  A
C368       C1167   1.409       .  A
C369        C370   1.405       .  A
C369        H373   1.082       .  S
C370        O374   1.372       .  S
O372        H376   0.991       .  S
O374        H375   0.991       .  S
C377        C834   1.495       .  S
C377        C378   1.404       .  A
C377       C1182   1.419       .  A
C378        C379   1.405       .  A
C378        H383   1.083       .  S
C379        C380   1.408       .  A
C379        O384   1.369       .  S
C380       C1181   1.395       .  A
C381        C382   1.401       .  A
C381       C1180   1.395       .  A
C381        H385   1.084       .  S
C382       C1177   1.419       .  A
C382        O386   1.376       .  S
O384        H388   0.991       .  S
O386        H387   0.993       .  S
C389        C394   1.418       .  A
C389       C1190   1.411       .  A
C390        C391   1.401       .  A
C390       C1189   1.411       .  A
C390        H395   1.081       .  S
C391       C1192   1.402       .  A
C391        O396   1.369       .  S
C392        C393   1.398       .  A
C392       C1191   1.402       .  A
C393        C394   1.406       .  A
C393        H397   1.084       .  S
C394        O398   1.378       .  S
O396        H400   0.992       .  S
O398        H399   0.991       .  S
O401       Cu409   1.992       .  S
O401        C411   1.275       .  A
O402       Cu409   2.005       .  S
O402       C1212   1.274       .  A
O403       Cu409   2.041       .  S
O403        C413   1.280       .  A
O404       Cu409   2.015       .  S
O404       C1214   1.280       .  A
O405       Cu410   2.018       .  S
O405        C414   1.276       .  A
O406       Cu410   2.012       .  S
O406       C1213   1.278   1_545  A
O407       Cu410   2.011       .  S
O407        C412   1.279   1_545  A
O408       Cu410   2.002       .  S
O408       C1211   1.275       .  A
Cu409     Cu1210   2.377       .  S
Cu410     Cu1209   2.376   1_545  S
C411       O1208   1.278       .  A
C411        C756   1.464       .  S
C412       O1202   1.277       .  A
C412        C780   1.472       .  S
C413       O1206   1.278       .  A
C413        C765   1.481       .  S
C414       O1204   1.280       .  A
C414        C792   1.473       .  S
C415        C816   1.532   1_545  S
C415       C1221   1.525       .  S
C415        C419   1.520       .  S
C415        C753   1.535       .  S
C416        C815   1.532   1_556  S
C416        H423   1.082       .  S
C416        C417   1.367       .  D
C417        C418   1.561       .  S
C417        C768   1.498       .  S
C418       C1220   1.560       .  S
C418        H424   1.110       .  S
C419        H425   1.078       .  S
C420       C1218   1.563   1_545  S
C420        C591   1.481       .  S
C421       C1215   1.526       .  S
C421        H426   1.084       .  S
C421        C422   1.365       .  D
C422        C606   1.504       .  S
C427       C1228   1.527       .  S
C427        C433   1.532       .  S
C427        C431   1.534       .  S
C427        C789   1.544       .  S
C428       C1227   1.531       .  S
C428        H435   1.084       .  S
C428        C429   1.364       .  D
C429        C830   1.563       .  S
C429        C578   1.489       .  S
C430        C829   1.567   1_556  S
C430       C1234   1.548       .  S
C430        C432   1.562   1_565  S
C430       H1236   1.110       .  S
C431        H437   1.081       .  S
C432        C563   1.503       .  S
C433        C834   1.358   1_545  D
C434       C1230   1.551       .  S
C434        C833   1.357   1_556  D
C434       C1577   1.494       .  S
H436       C1230   1.110       .  S
O439       Cu447   2.006       .  S
O439        C449   1.275       .  A
O440       Cu447   1.987       .  S
O440        C450   1.276       .  A
O441       Cu447   2.008       .  S
O441        C451   1.279       .  A
O442       Cu447   2.035       .  S
O442        C452   1.279       .  A
O443       Cu448   2.007       .  S
O443        C452   1.278       .  A
O444       Cu448   2.006       .  S
O444        C451   1.274       .  A
O445       Cu448   2.021       .  S
O445        C450   1.278       .  A
O446       Cu448   2.036       .  S
O446        C449   1.282       .  A
Cu447      Cu448   2.377       .  S
C449        C705   1.477       .  S
C450        C741   1.469       .  S
C451        C717   1.463       .  S
C452        C729   1.481       .  S
C453        C454   1.523       .  S
C453        C457   1.519       .  S
C453        C720   1.533       .  S
C454        H461   1.084       .  S
C454        C455   1.361       .  D
C455        C608   1.496       .  S
C456        C460   1.548       .  S
C456        C458   1.559       .  S
C456        H462   1.110       .  S
C457        H463   1.078       .  S
C458        C593   1.489       .  S
C459        H464   1.084       .  S
C459        C460   1.359   1_554  D
C460        C708   1.487       .  S
C465        C471   1.518       .  S
C465        C469   1.524       .  S
C465        C744   1.535       .  S
C466        H473   1.082       .  S
C466        C467   1.367       .  D
C467        C468   1.556       .  S
C467        C732   1.487       .  S
C468        C470   1.562       .  S
C468        H474   1.110       .  S
C469        H475   1.082       .  S
C470        C565   1.492       .  S
C471        H476   1.086       .  S
C471        C472   1.362       .  D
C472        C580   1.507       .  S
O477       Cu485   2.003   1_655  S
O477        C487   1.279       .  A
O478        C488   1.277       .  A
O479        C489   1.276       .  A
O480       Cu485   2.009       .  S
O480        C490   1.279       .  A
O481       Cu486   2.011   1_456  S
O481        C490   1.275       .  A
O482        C489   1.279       .  A
O483        C488   1.279       .  A
O484       Cu486   2.018   1_556  S
O484        C487   1.278       .  A
Cu485      Cu486   2.376   1_456  S
C487        C681   1.482       .  S
C488        C657   1.479       .  S
C489        C696   1.469       .  S
C490        C672   1.467       .  S
C491        C492   1.515       .  S
C491        C497   1.538       .  S
C491        C495   1.541       .  S
C491        C669   1.545       .  S
C492        H499   1.082       .  S
C492        C493   1.362       .  D
C493        C494   1.575       .  S
C493        C592   1.492       .  S
C494        C498   1.547       .  S
C494        C496   1.548       .  S
C494        H500   1.110       .  S
C495        H501   1.075       .  S
C495        C496   1.375       .  D
C496        C605   1.502       .  S
C497        H502   1.086       .  S
C497        C498   1.358       .  D
C498        C660   1.485       .  S
C503        C504   1.536       .  S
C503        C509   1.526       .  S
C503        C507   1.545       .  S
C503        C693   1.541       .  S
C504        H511   1.085       .  S
C504        C505   1.356       .  D
C505        C506   1.551       .  S
C505        C684   1.490       .  S
C506        C510   1.571       .  S
C506        C508   1.547       .  S
C506        H512   1.110       .  S
C507        H513   1.086       .  S
C507        C508   1.377       .  D
C508        C564   1.493       .  S
C509        H514   1.084       .  S
C509        C510   1.361       .  D
C510        C577   1.494       .  S
O515       Cu523   2.013   1_455  S
O515       C1325   1.279   1_545  A
O516       C1326   1.277       .  A
O517       C1327   1.277       .  A
O518       Cu523   1.991   1_565  S
O518       C1328   1.276       .  A
O519       Cu524   2.008   1_656  S
O519        C528   1.276       .  A
O520        C527   1.279       .  A
O521        C526   1.280       .  A
O522       Cu524   2.010   1_556  S
O522        C525   1.276       .  A
Cu523     Cu1324   2.378   1_646  S
Cu524     Cu1323   2.378   1_454  S
C525       O1315   1.278       .  A
C525        C624   1.465       .  S
C526       O1316   1.277       .  A
C526        C648   1.476       .  S
C527       O1317   1.277       .  A
C527        C609   1.472       .  S
C528       O1318   1.277       .  A
C528        C633   1.461       .  S
C529        C530   1.530       .  S
C529       C1335   1.529       .  S
C529        C533   1.521       .  S
C529        C621   1.535       .  S
C530        H537   1.083       .  S
C530        C531   1.367       .  D
C531        C532   1.560       .  S
C531        C612   1.498       .  S
C532       C1336   1.561       .  S
C532        C534   1.558       .  S
C532       H1338   1.110       .  S
C533        H539   1.077       .  S
C533        C534   1.363       .  D
C534        C607   1.482       .  S
C535       C1329   1.528   1_545  S
C535        H540   1.084       .  S
C535        C536   1.368       .  D
C536       C1332   1.555       .  S
C536        C594   1.491       .  S
H538       C1332   1.110       .  S
C541       C1342   1.530       .  S
C541       C1347   1.534       .  S
C541        C545   1.529       .  S
C541        C636   1.537       .  S
C542       C1341   1.526       .  S
C542        H549   1.083   1_565  S
C542        C543   1.359   1_565  D
C543        C544   1.572       .  S
C543        C566   1.498       .  S
C544        C548   1.553       .  S
C544       C1346   1.558   1_545  S
C544        H550   1.110       .  S
C545        H551   1.087       .  S
C545        C546   1.369       .  D
C546       C1344   1.563       .  S
C546        C579   1.490       .  S
C547       C1341   1.535       .  S
C547        H552   1.084       .  S
C547        C548   1.362   1_565  D
C548        C645   1.496       .  S
O553       Cu561   2.047       .  S
O553        C563   1.280       .  A
O554       Cu561   2.025       .  S
O554        C564   1.278       .  A
O555       Cu561   2.026       .  S
O555        C565   1.276       .  A
O556       Cu561   2.023       .  S
O556        C566   1.284       .  A
O557       Cu562   2.051       .  S
O557        C566   1.278       .  A
O558       Cu562   2.051       .  S
O558        C565   1.284       .  A
O559       Cu562   2.050       .  S
O559        C564   1.281       .  A
O560       Cu562   2.063       .  S
O560        C563   1.284       .  A
Cu561      Cu562   2.365       .  S
O567       Cu575   2.026       .  S
O567        C577   1.284       .  A
O568       Cu575   2.037       .  S
O568        C578   1.277       .  A
O569       Cu575   2.067       .  S
O569        C579   1.286       .  A
O570       Cu575   2.073       .  S
O570        C580   1.280       .  A
O571       Cu576   2.002       .  S
O571        C580   1.282       .  A
O572       Cu576   2.007       .  S
O572        C579   1.274       .  A
O573       Cu576   2.016       .  S
O573        C578   1.282       .  A
O574       Cu576   2.038       .  S
O574        C577   1.276       .  A
Cu575      Cu576   2.367       .  S
O581       Cu589   2.034       .  S
O581        C591   1.281       .  A
O582       Cu589   2.047       .  S
O582        C592   1.277       .  A
O583       Cu589   2.072       .  S
O583        C593   1.287       .  A
O584       Cu589   2.069       .  S
O584        C594   1.282       .  A
O585       Cu590   1.962       .  S
O585        C594   1.275       .  A
O586       Cu590   2.000       .  S
O586        C593   1.273       .  A
O587       Cu590   2.001       .  S
O587        C592   1.282       .  A
O588       Cu590   2.022       .  S
O588        C591   1.277       .  A
Cu589      Cu590   2.365       .  S
O595       Cu603   2.020       .  S
O595        C605   1.274       .  A
O596       Cu603   1.984       .  S
O596        C606   1.279       .  A
O597       Cu603   2.021       .  S
O597        C607   1.277       .  A
O598       Cu603   2.018       .  S
O598        C608   1.284       .  A
O599       Cu604   2.049       .  S
O599        C608   1.277       .  A
O600       Cu604   2.036       .  S
O600        C607   1.281       .  A
O601       Cu604   2.078       .  S
O601        C606   1.282       .  A
O602       Cu604   2.079       .  S
O602        C605   1.288       .  A
Cu603      Cu604   2.364       .  S
C609        C610   1.401       .  A
C609        C614   1.401       .  A
C610        C611   1.402       .  A
C610        H615   1.079       .  S
C611        C612   1.410       .  A
C611        O616   1.369       .  S
C612        C613   1.413       .  A
C613        C614   1.402       .  A
C613        H617   1.084       .  S
C614        O618   1.372       .  S
O616        H620   0.991       .  S
O618        H619   0.992       .  S
C621        C622   1.411       .  A
C621        C626   1.414       .  A
C622        C623   1.401       .  A
C622        H627   1.081       .  S
C623        C624   1.401       .  A
C623        O628   1.372       .  S
C624        C625   1.400       .  A
C625        C626   1.402       .  A
C625        H629   1.083       .  S
C626        O630   1.376       .  S
O628        H632   0.991       .  S
O630        H631   0.992       .  S
C633        C634   1.399       .  A
C633        C638   1.402       .  A
C634        C635   1.404       .  A
C634        H639   1.084       .  S
C635        C636   1.415       .  A
C635        O640   1.376       .  S
C636        C637   1.412       .  A
C637        C638   1.396       .  A
C637        H641   1.083       .  S
C638        O642   1.372       .  S
O640        H644   0.992       .  S
O642        H643   0.991       .  S
C645        C646   1.410       .  A
C645       C1450   1.410       .  A
C646        C647   1.399       .  A
C646        H651   1.083       .  S
C647       C1448   1.399       .  A
C647        O652   1.371       .  S
C648       C1447   1.401       .  A
C648        C649   1.405       .  A
C649        C650   1.406       .  A
C649        H653   1.084       .  S
C650       C1445   1.408       .  A
C650        O654   1.368       .  S
O652        H656   0.992       .  S
O654        H655   0.991       .  S
C657        C658   1.397       .  A
C657        C662   1.410       .  A
C658        C659   1.394       .  A
C658        H663   1.084       .  S
C659        C660   1.414       .  A
C659        O664   1.375       .  S
C660        C661   1.405       .  A
C661        C662   1.409       .  A
C661        H665   1.083       .  S
C662        O666   1.369       .  S
O664        H668   0.991       .  S
O666        H667   0.991       .  S
C669        C670   1.414       .  A
C669        C674   1.415       .  A
C670        C671   1.400       .  A
C670        H675   1.083       .  S
C671        C672   1.400       .  A
C671        O676   1.372       .  S
C672        C673   1.401       .  A
C673        C674   1.406       .  A
C673        H677   1.084       .  S
C674        O678   1.376       .  S
O676        H680   0.990       .  S
O678        H679   0.992       .  S
C681        C682   1.396       .  A
C681        C686   1.409       .  A
C682        C683   1.395       .  A
C682        H687   1.084       .  S
C683        C684   1.417       .  A
C683        O688   1.375       .  S
C684        C685   1.405       .  A
C685        C686   1.409       .  A
C685        H689   1.084       .  S
C686        O690   1.366       .  S
O688        H692   0.993       .  S
O690        H691   0.991       .  S
C693        C694   1.408       .  A
C693        C698   1.419       .  A
C694        C695   1.400       .  A
C694        H699   1.082       .  S
C695        C696   1.405       .  A
C695        O700   1.372       .  S
C696        C697   1.397       .  A
C697        C698   1.407       .  A
C697        H701   1.084       .  S
C698        O702   1.377       .  S
O700        H704   0.992       .  S
O702        H703   0.992       .  S
C705        C706   1.399       .  A
C705        C710   1.407       .  A
C706        C707   1.407       .  A
C706        H711   1.083       .  S
C707        C708   1.416       .  A
C707        O712   1.374       .  S
C708        C709   1.399       .  A
C709        C710   1.400       .  A
C709        H713   1.082       .  S
C710        O714   1.367       .  S
O712        H716   0.991   1_556  S
O714        H715   0.992       .  S
C717        C718   1.398       .  A
C717        C722   1.404       .  A
C718        C719   1.396       .  A
C718        H723   1.075       .  S
C719        C720   1.412       .  A
C719        O724   1.371       .  S
C720        C721   1.410       .  A
C721        C722   1.396       .  A
C721        H725   1.083       .  S
C722        O726   1.372       .  S
O724        H728   0.992       .  S
O726        H727   0.991       .  S
C729        C730   1.401       .  A
C729        C734   1.410       .  A
C730        C731   1.407       .  A
C730        H735   1.084       .  S
C731        C732   1.413       .  A
C731        O736   1.371       .  S
C732        C733   1.402       .  A
C733        C734   1.402       .  A
C733        H737   1.082       .  S
C734        O738   1.372       .  S
O736        H740   0.992       .  S
O738        H739   0.991       .  S
C741        C742   1.399       .  A
C741        C746   1.404       .  A
C742        C743   1.406       .  A
C742        H747   1.084       .  S
C743        C744   1.419       .  A
C743        O748   1.375       .  S
C744        C745   1.407       .  A
C745        C746   1.394       .  A
C745        H749   1.078       .  S
C746        O750   1.373       .  S
O748        H752   0.991       .  S
O750        H751   0.992       .  S
C753       C1554   1.413       .  A
C753        C758   1.414       .  A
C754       C1553   1.411       .  A
C754        C755   1.397       .  A
C754        H759   1.081       .  S
C755        C756   1.400       .  A
C755        O760   1.372       .  S
C756       C1557   1.401       .  A
C757       C1556   1.398       .  A
C757        C758   1.400       .  A
C757        H761   1.084       .  S
C758        O762   1.376       .  S
O760        H764   0.990       .  S
O762        H763   0.993       .  S
C765       C1566   1.404       .  A
C765        C770   1.405       .  A
C766       C1565   1.404       .  A
C766        C767   1.405       .  A
C766        H771   1.083       .  S
C767       C1568   1.410       .  A
C767        O772   1.369       .  S
C768       C1567   1.409       .  A
C768        C769   1.413       .  A
C769        C770   1.406       .  A
C769        H773   1.084       .  S
C770        O774   1.372       .  S
O772        H776   0.991       .  S
O774        H775   0.992       .  S
C777       C1234   1.493       .  S
C777        C778   1.402       .  A
C777       C1582   1.419       .  A
C778        C779   1.404       .  A
C778        H783   1.083       .  S
C779        C780   1.408       .  A
C779        O784   1.369       .  S
C780       C1581   1.396       .  A
C781       C1580   1.395       .  A
C781        C782   1.403       .  A
C781        H785   1.084       .  S
C782       C1577   1.419       .  A
C782        O786   1.376   1_556  S
O784        H788   0.992       .  S
O786        H787   0.993       .  S
C789       C1590   1.411       .  A
C789        C794   1.418       .  A
C790       C1589   1.411       .  A
C790        C791   1.401       .  A
C790        H795   1.081       .  S
C791       C1592   1.403       .  A
C791        O796   1.368       .  S
C792       C1591   1.402       .  A
C792        C793   1.400       .  A
C793        C794   1.408       .  A
C793        H797   1.084       .  S
C794        O798   1.377       .  S
O796        H800   0.992       .  S
O798        H799   0.991       .  S
O801       Cu809   1.986   1_545  S
O801        C811   1.275       .  A
O802       Cu809   2.006       .  S
O803       Cu809   2.045       .  S
O803        C813   1.281       .  A
O804       Cu809   2.014   1_545  S
O805       Cu810   2.019       .  S
O805        C814   1.276       .  A
O806       Cu810   2.011       .  S
O807       Cu810   2.014       .  S
O807        C812   1.279       .  A
O808       Cu810   2.008       .  S
C811       C1156   1.462       .  S
C812       C1180   1.470       .  S
C813       C1165   1.483       .  S
C814       C1192   1.473       .  S
C815        C819   1.521   1_554  S
C815       C1153   1.536       .  S
C816        H823   1.082       .  S
C816        C817   1.367       .  D
C817        C818   1.564       .  S
C817       C1168   1.503       .  S
C818       C1222   1.572       .  S
C818        H824   1.110       .  S
C819        H825   1.080       .  S
C819       C1220   1.365       .  D
C820       C1219   1.363       .  D
C820        C991   1.487       .  S
C821        H826   1.085       .  S
C821        C822   1.364   1_545  D
C822       C1218   1.567   1_554  S
C822       C1006   1.503       .  S
C827        C833   1.530       .  S
C827        C831   1.536       .  S
C827       C1189   1.547       .  S
C828        H835   1.084       .  S
C828        C829   1.364   1_545  D
C829        C978   1.491       .  S
C830        C832   1.563       .  S
C831        H837   1.080       .  S
C831       C1232   1.377   1_554  D
C832       C1231   1.374       .  D
C832        C963   1.501       .  S
C833       H1238   1.080       .  S
H838       C1233   1.081       .  S
O839       Cu847   2.003       .  S
O839        C849   1.274       .  A
O840       Cu847   1.987       .  S
O840        C850   1.276       .  A
O841       Cu847   2.006       .  S
O841        C851   1.279       .  A
O842       Cu847   2.034       .  S
O842        C852   1.279       .  A
O843       Cu848   2.003       .  S
O843        C852   1.278       .  A
O844       Cu848   2.007       .  S
O844        C851   1.274       .  A
O845       Cu848   2.028       .  S
O845        C850   1.279       .  A
O846       Cu848   2.036       .  S
O846        C849   1.282       .  A
Cu847      Cu848   2.377       .  S
C849       C1105   1.475       .  S
C850       C1141   1.471       .  S
C851       C1117   1.463       .  S
C852       C1129   1.479       .  S
C853        C854   1.524       .  S
C853       C1259   1.538       .  S
C853        C857   1.526       .  S
C853       C1120   1.538       .  S
C854        H861   1.084       .  S
C854        C855   1.361       .  D
C855       C1256   1.571   1_554  S
C855       C1008   1.491       .  S
C856       C1255   1.572       .  S
C856        C860   1.547       .  S
C856        C858   1.559       .  S
C856        H862   1.110       .  S
C857        H863   1.079       .  S
C857       C1258   1.368   1_554  D
C858       C1257   1.366       .  D
C858        C993   1.490       .  S
C859       C1253   1.538       .  S
C859        H864   1.084       .  S
C859        C860   1.359       .  D
C860       C1108   1.486       .  S
C865       C1266   1.532   1_554  S
C865        C871   1.520       .  S
C865        C869   1.527   1_554  S
C865       C1144   1.538       .  S
C866       C1265   1.534       .  S
C866        H873   1.081       .  S
C866        C867   1.365       .  D
C867        C868   1.554       .  S
C867       C1132   1.487       .  S
C868       C1272   1.572       .  S
C868        C870   1.561       .  S
C868        H874   1.110       .  S
C869        H875   1.081       .  S
C869       C1270   1.369       .  D
C870       C1269   1.368       .  D
C870        C965   1.490       .  S
C871        H876   1.086       .  S
C871        C872   1.363       .  D
C872       C1268   1.575   1_554  S
C872        C980   1.508       .  S
O877       Cu885   1.996   1_655  S
O877        C887   1.278       .  A
O878      Cu1285   2.017   1_554  S
O878        C888   1.278       .  A
O879      Cu1285   2.008   1_654  S
O879        C889   1.274       .  A
O880       Cu885   2.014       .  S
O880        C890   1.280       .  A
O881       Cu886   2.013   1_455  S
O881        C890   1.275       .  A
O882      Cu1286   2.012       .  S
O882        C889   1.280       .  A
O883      Cu1286   1.994   1_455  S
O883        C888   1.278       .  A
O884       Cu886   2.025       .  S
O884        C887   1.280       .  A
Cu885      O1278   2.000       .  S
Cu885      O1279   2.014   1_455  S
Cu885      Cu886   2.375   1_455  S
Cu886      O1282   2.005       .  S
Cu886      O1283   2.007   1_655  S
C887       C1081   1.485       .  S
C888       C1057   1.479       .  S
C889       C1096   1.466       .  S
C890       C1072   1.470       .  S
C891        C892   1.517       .  S
C891        C897   1.537       .  S
C891        C895   1.539       .  S
C891       C1069   1.545       .  S
C892        H899   1.082       .  S
C892        C893   1.364       .  D
C893        C894   1.578       .  S
C893        C992   1.496       .  S
C894        C898   1.546       .  S
C894        C896   1.549       .  S
C894        H900   1.110       .  S
C895        H901   1.075       .  S
C895        C896   1.374       .  D
C896       C1005   1.500       .  S
C897        H902   1.086       .  S
C897        C898   1.357       .  D
C898       C1060   1.484       .  S
C903        C904   1.537       .  S
C903        C909   1.525       .  S
C903        C907   1.543       .  S
C903       C1093   1.538       .  S
C904        H911   1.085       .  S
C904        C905   1.356       .  D
C905        C906   1.551       .  S
C905       C1084   1.493       .  S
C906        C910   1.572       .  S
C906        C908   1.546       .  S
C906        H912   1.110       .  S
C907        H913   1.087       .  S
C907        C908   1.375       .  D
C908        C964   1.490       .  S
C909        H914   1.084       .  S
C909        C910   1.363       .  D
C910        C977   1.493       .  S
O915       Cu923   2.006       .  S
O916      Cu1323   2.021   1_554  S
O917      Cu1323   2.025   1_454  S
O918       Cu923   1.990   1_655  S
O919       Cu924   2.003   1_655  S
O919        C928   1.275       .  A
O920      Cu1324   2.013       .  S
O920        C927   1.278   1_565  A
O921      Cu1324   2.026   1_655  S
O921        C926   1.280   1_565  A
O922       Cu924   2.016       .  S
O922        C925   1.277       .  A
Cu923      O1316   2.021   1_455  S
Cu923      O1317   2.019       .  S
Cu924      O1320   2.008       .  S
Cu924      O1321   2.014   1_455  S
C925       C1024   1.466       .  S
C926       C1048   1.479       .  S
C927       C1009   1.472       .  S
C928       C1033   1.457       .  S
C929        C930   1.530   1_565  S
C929        C933   1.523       .  S
C929       C1021   1.535       .  S
C930        H937   1.083       .  S
C930        C931   1.368       .  D
C931        C932   1.561       .  S
C931       C1012   1.501       .  S
C932        C934   1.554   1_545  S
C933        H939   1.077       .  S
C933        C934   1.363       .  D
C934       C1007   1.481       .  S
C935        H940   1.084       .  S
C935        C936   1.366       .  D
C936        C994   1.493       .  S
C941        C945   1.532       .  S
C941       C1036   1.537       .  S
C942        H949   1.083       .  S
C942        C943   1.359       .  D
C943        C944   1.573       .  S
C943        C966   1.499       .  S
C944        C948   1.553       .  S
C944        H950   1.110       .  S
C945        H951   1.086       .  S
C945        C946   1.370       .  D
C946        C979   1.489       .  S
C947        H952   1.084       .  S
C947        C948   1.361       .  D
C948       C1045   1.495       .  S
O953       Cu961   2.048       .  S
O953        C963   1.281       .  A
O954       Cu961   2.025       .  S
O954        C964   1.278       .  A
O955       Cu961   2.022       .  S
O955        C965   1.275       .  A
O956       Cu961   2.020       .  S
O956        C966   1.284       .  A
O957       Cu962   2.053       .  S
O957        C966   1.278       .  A
O958       Cu962   2.052       .  S
O958        C965   1.285       .  A
O959       Cu962   2.043       .  S
O959        C964   1.280       .  A
O960       Cu962   2.058       .  S
O960        C963   1.283       .  A
Cu961      Cu962   2.366       .  S
O967       Cu975   2.023       .  S
O967        C977   1.284       .  A
O968       Cu975   2.038       .  S
O968        C978   1.277       .  A
O969       Cu975   2.065       .  S
O969        C979   1.286       .  A
O970       Cu975   2.070       .  S
O970        C980   1.280       .  A
O971       Cu976   2.010       .  S
O971        C980   1.283       .  A
O972       Cu976   2.010       .  S
O972        C979   1.274       .  A
O973       Cu976   2.021       .  S
O973        C978   1.283       .  A
O974       Cu976   2.039       .  S
O974        C977   1.276       .  A
Cu975      Cu976   2.367       .  S
O981       Cu989   2.043       .  S
O981        C991   1.282       .  A
O982       Cu989   2.055       .  S
O982        C992   1.278       .  A
O983       Cu989   2.073       .  S
O983        C993   1.287       .  A
O984       Cu989   2.069       .  S
O984        C994   1.282       .  A
O985       Cu990   1.971       .  S
O985        C994   1.276       .  A
O986       Cu990   2.006       .  S
O986        C993   1.273       .  A
O987       Cu990   2.007       .  S
O987        C992   1.282       .  A
O988       Cu990   2.028       .  S
O988        C991   1.278       .  A
Cu989      Cu990   2.366       .  S
O995      Cu1003   2.013       .  S
O995       C1005   1.273       .  A
O996      Cu1003   1.978       .  S
O996       C1006   1.278       .  A
O997      Cu1003   2.019       .  S
O997       C1007   1.277       .  A
O998      Cu1003   2.013       .  S
O998       C1008   1.283       .  A
O999      Cu1004   2.043       .  S
O999       C1008   1.276       .  A
O1000     Cu1004   2.034       .  S
O1000      C1007   1.280       .  A
O1001     Cu1004   2.082       .  S
O1001      C1006   1.283       .  A
O1002     Cu1004   2.080       .  S
O1002      C1005   1.289       .  A
Cu1003    Cu1004   2.364       .  S
C1009      C1010   1.400       .  A
C1009      C1014   1.401       .  A
C1010      C1011   1.402       .  A
C1010      H1015   1.080       .  S
C1011      C1012   1.411       .  A
C1011      O1016   1.369       .  S
C1012      C1013   1.414       .  A
C1013      C1014   1.402       .  A
C1013      H1017   1.084       .  S
C1014      O1018   1.371       .  S
O1016      H1020   0.991       .  S
O1018      H1019   0.992       .  S
C1021      C1022   1.411       .  A
C1021      C1026   1.414       .  A
C1022      C1023   1.402       .  A
C1022      H1027   1.081       .  S
C1023      C1024   1.401       .  A
C1023      O1028   1.372       .  S
C1024      C1025   1.400       .  A
C1025      C1026   1.401       .  A
C1025      H1029   1.083       .  S
C1026      O1030   1.376       .  S
O1028      H1032   0.990       .  S
O1030      H1031   0.993       .  S
C1033      C1034   1.398       .  A
C1033      C1038   1.401       .  A
C1034      C1035   1.404       .  A
C1034      H1039   1.084       .  S
C1035      C1036   1.415       .  A
C1035      O1040   1.375       .  S
C1036      C1037   1.412       .  A
C1037      C1038   1.396       .  A
C1037      H1041   1.083       .  S
C1038      O1042   1.372       .  S
O1040      H1044   0.992       .  S
O1042      H1043   0.991       .  S
C1045      C1046   1.410       .  A
C1046      C1047   1.400       .  A
C1046      H1051   1.083       .  S
C1047      O1052   1.371       .  S
C1048      C1049   1.406       .  A
C1049      C1050   1.408       .  A
C1049      H1053   1.084       .  S
C1050      O1054   1.369       .  S
O1052      H1056   0.991       .  S
O1054      H1055   0.991       .  S
C1057      C1058   1.398       .  A
C1057      C1062   1.410       .  A
C1058      C1059   1.394       .  A
C1058      H1063   1.084       .  S
C1059      C1060   1.415       .  A
C1059      O1064   1.375       .  S
C1060      C1061   1.404       .  A
C1061      C1062   1.407       .  A
C1061      H1065   1.083       .  S
C1062      O1066   1.369       .  S
O1064      H1068   0.992       .  S
O1066      H1067   0.991       .  S
C1069      C1070   1.414       .  A
C1069      C1074   1.414       .  A
C1070      C1071   1.401       .  A
C1070      H1075   1.083       .  S
C1071      C1072   1.400       .  A
C1071      O1076   1.372       .  S
C1072      C1073   1.402       .  A
C1073      C1074   1.407       .  A
C1073      H1077   1.084       .  S
C1074      O1078   1.376       .  S
O1076      H1080   0.992       .  S
O1078      H1079   0.992       .  S
C1081      C1082   1.397       .  A
C1081      C1086   1.409       .  A
C1082      C1083   1.395       .  A
C1082      H1087   1.084       .  S
C1083      C1084   1.418       .  A
C1083      O1088   1.374       .  S
C1084      C1085   1.404       .  A
C1085      C1086   1.409       .  A
C1085      H1089   1.083       .  S
C1086      O1090   1.365       .  S
O1088      H1092   0.993       .  S
O1090      H1091   0.991       .  S
C1093      C1094   1.408       .  A
C1093      C1098   1.419       .  A
C1094      C1095   1.400       .  A
C1094      H1099   1.082       .  S
C1095      C1096   1.405       .  A
C1095      O1100   1.372       .  S
C1096      C1097   1.394       .  A
C1097      C1098   1.404       .  A
C1097      H1101   1.084       .  S
C1098      O1102   1.376       .  S
O1100      H1104   0.992   1_554  S
O1102      H1103   0.992       .  S
C1105      C1106   1.398       .  A
C1105      C1110   1.410       .  A
C1106      C1107   1.402       .  A
C1106      H1111   1.083       .  S
C1107      C1108   1.418       .  A
C1107      O1112   1.373       .  S
C1108      C1109   1.400       .  A
C1109      C1110   1.402       .  A
C1109      H1113   1.083       .  S
C1110      O1114   1.370       .  S
O1112      H1116   0.992       .  S
O1114      H1115   0.991       .  S
C1117      C1118   1.399       .  A
C1117      C1122   1.403       .  A
C1118      C1119   1.401       .  A
C1118      H1123   1.081       .  S
C1119      C1120   1.415       .  A
C1119      O1124   1.371       .  S
C1120      C1121   1.409       .  A
C1121      C1122   1.395       .  A
C1121      H1125   1.083       .  S
C1122      O1126   1.372       .  S
O1124      H1128   0.992       .  S
O1126      H1127   0.992       .  S
C1129      C1130   1.400       .  A
C1129      C1134   1.410       .  A
C1130      C1131   1.407       .  A
C1130      H1135   1.084       .  S
C1131      C1132   1.413       .  A
C1131      O1136   1.370       .  S
C1132      C1133   1.402       .  A
C1133      C1134   1.401       .  A
C1133      H1137   1.081       .  S
C1134      O1138   1.372       .  S
O1136      H1140   0.991       .  S
O1138      H1139   0.991       .  S
C1141      C1142   1.400       .  A
C1141      C1146   1.403       .  A
C1142      C1143   1.408       .  A
C1142      H1147   1.083       .  S
C1143      C1144   1.419       .  A
C1143      O1148   1.375       .  S
C1144      C1145   1.408       .  A
C1145      C1146   1.394       .  A
C1145      H1149   1.078   1_554  S
C1146      O1150   1.372       .  S
O1148      H1152   0.991       .  S
O1150      H1151   0.992       .  S
C1153      C1158   1.414       .  A
C1154      C1155   1.398       .  A
C1154      H1159   1.081       .  S
C1155      C1156   1.400       .  A
C1155      O1160   1.373       .  S
C1157      C1158   1.401       .  A
C1157      H1161   1.084       .  S
C1158      O1162   1.376       .  S
O1160      H1164   0.989       .  S
O1162      H1163   0.993   1_554  S
C1165      C1170   1.404       .  A
C1166      C1167   1.405       .  A
C1166      H1171   1.084       .  S
C1167      O1172   1.369       .  S
C1168      C1169   1.414       .  A
C1169      C1170   1.406       .  A
C1169      H1173   1.083       .  S
C1170      O1174   1.372       .  S
O1172      H1176   0.991       .  S
O1174      H1175   0.991       .  S
C1177      C1178   1.402       .  A
C1178      C1179   1.403       .  A
C1178      H1183   1.083       .  S
C1179      C1180   1.407       .  A
C1179      O1184   1.369       .  S
C1181      C1182   1.401       .  A
C1181      H1185   1.084       .  S
C1182      O1186   1.376       .  S
O1184      H1188   0.991       .  S
O1186      H1187   0.992       .  S
C1189      C1194   1.418       .  A
C1190      C1191   1.402       .  A
C1190      H1195   1.081       .  S
C1191      O1196   1.370       .  S
C1192      C1193   1.400       .  A
C1193      C1194   1.408       .  A
C1193      H1197   1.084       .  S
C1194      O1198   1.378       .  S
O1196      H1200   0.992       .  S
O1198      H1199   0.991       .  S
O1201     Cu1209   1.995   1_545  S
O1201      C1211   1.277       .  A
O1202     Cu1209   2.020       .  S
O1203     Cu1209   2.044       .  S
O1203      C1213   1.281       .  A
O1204     Cu1209   2.018   1_545  S
O1205     Cu1210   2.020       .  S
O1205      C1214   1.276       .  A
O1206     Cu1210   2.013       .  S
O1207     Cu1210   2.027       .  S
O1207      C1212   1.281       .  A
O1208     Cu1210   2.016       .  S
C1211      C1556   1.461       .  S
C1212      C1580   1.473       .  S
C1213      C1565   1.482       .  S
C1214      C1592   1.472       .  S
C1215      C1219   1.518       .  S
C1215      C1553   1.534       .  S
C1216      H1223   1.083       .  S
C1216      C1217   1.367       .  D
C1217      C1218   1.562       .  S
C1217      C1568   1.501       .  S
C1218      H1224   1.110       .  S
C1219      H1225   1.079       .  S
C1220      C1391   1.484       .  S
C1221      H1226   1.085   1_545  S
C1221      C1222   1.364   1_545  D
C1222      C1406   1.508       .  S
C1227      C1233   1.531       .  S
C1227      C1231   1.534       .  S
C1227      C1589   1.543       .  S
C1228      H1235   1.084       .  S
C1228      C1229   1.361   1_545  D
C1229      C1378   1.489       .  S
C1230      C1232   1.563       .  S
C1231      H1237   1.082       .  S
C1232      C1363   1.503       .  S
O1239     Cu1247   2.002       .  S
O1239      C1249   1.274       .  A
O1240     Cu1247   1.986       .  S
O1240      C1250   1.276       .  A
O1241     Cu1247   2.012       .  S
O1241      C1251   1.280       .  A
O1242     Cu1247   2.042       .  S
O1242      C1252   1.281       .  A
O1243     Cu1248   1.994       .  S
O1243      C1252   1.276       .  A
O1244     Cu1248   1.999       .  S
O1244      C1251   1.273       .  A
O1245     Cu1248   2.020       .  S
O1245      C1250   1.278       .  A
O1246     Cu1248   2.027       .  S
O1246      C1249   1.281       .  A
Cu1247    Cu1248   2.378       .  S
C1249      C1505   1.472       .  S
C1250      C1541   1.468       .  S
C1251      C1517   1.461       .  S
C1252      C1529   1.479       .  S
C1253      C1254   1.524       .  S
C1253      C1257   1.523       .  S
C1253      C1520   1.534       .  S
C1254      H1261   1.085       .  S
C1254      C1255   1.360       .  D
C1255      C1408   1.490       .  S
C1256      C1260   1.547       .  S
C1256      C1258   1.558       .  S
C1256      H1262   1.110       .  S
C1257      H1263   1.078       .  S
C1258      C1393   1.493       .  S
C1259      H1264   1.084       .  S
C1259      C1260   1.360   1_554  D
C1260      C1508   1.487       .  S
C1265      C1271   1.517       .  S
C1265      C1269   1.527       .  S
C1265      C1544   1.534       .  S
C1266      H1273   1.081       .  S
C1266      C1267   1.364       .  D
C1267      C1268   1.556       .  S
C1267      C1532   1.488       .  S
C1268      C1270   1.565       .  S
C1268      H1274   1.110       .  S
C1269      H1275   1.083       .  S
C1270      C1365   1.498       .  S
C1271      H1276   1.086       .  S
C1271      C1272   1.362       .  D
C1272      C1380   1.505       .  S
O1277     Cu1285   2.008   1_655  S
O1277      C1287   1.280       .  A
O1278      C1288   1.275       .  A
O1279      C1289   1.276       .  A
O1280     Cu1285   2.007       .  S
O1280      C1290   1.278       .  A
O1281     Cu1286   2.019   1_456  S
O1281      C1290   1.277       .  A
O1282      C1289   1.278       .  A
O1283      C1288   1.280       .  A
O1284     Cu1286   2.003   1_556  S
O1284      C1287   1.276       .  A
Cu1285    Cu1286   2.376   1_456  S
C1287      C1481   1.480       .  S
C1288      C1457   1.475       .  S
C1289      C1496   1.466       .  S
C1290      C1472   1.471       .  S
C1291      C1292   1.515       .  S
C1291      C1297   1.534       .  S
C1291      C1295   1.543       .  S
C1291      C1469   1.548       .  S
C1292      H1299   1.083       .  S
C1292      C1293   1.362       .  D
C1293      C1294   1.580       .  S
C1293      C1392   1.496       .  S
C1294      C1298   1.548       .  S
C1294      C1296   1.548       .  S
C1294      H1300   1.110       .  S
C1295      H1301   1.072       .  S
C1295      C1296   1.377       .  D
C1296      C1405   1.506       .  S
C1297      H1302   1.085       .  S
C1297      C1298   1.357       .  D
C1298      C1460   1.484       .  S
C1303      C1304   1.534       .  S
C1303      C1309   1.524       .  S
C1303      C1307   1.546       .  S
C1303      C1493   1.541       .  S
C1304      H1311   1.085       .  S
C1304      C1305   1.355       .  D
C1305      C1306   1.550       .  S
C1305      C1484   1.489       .  S
C1306      C1310   1.572       .  S
C1306      C1308   1.546       .  S
C1306      H1312   1.110       .  S
C1307      H1313   1.086       .  S
C1307      C1308   1.377       .  D
C1308      C1364   1.494       .  S
C1309      H1314   1.084       .  S
C1309      C1310   1.361       .  D
C1310      C1377   1.492       .  S
O1315     Cu1323   2.001   1_455  S
O1318     Cu1323   1.998       .  S
O1319     Cu1324   2.006   1_656  S
O1319      C1328   1.275       .  A
O1320      C1327   1.278   1_565  A
O1321      C1326   1.279   1_565  A
O1322     Cu1324   2.029   1_556  S
O1322      C1325   1.278       .  A
C1325      C1424   1.476       .  S
C1326      C1448   1.472       .  S
C1327      C1409   1.471       .  S
C1328      C1433   1.458       .  S
C1329      C1330   1.530   1_565  S
C1329      C1333   1.524       .  S
C1329      C1421   1.543       .  S
C1330      H1337   1.083       .  S
C1330      C1331   1.368       .  D
C1331      C1332   1.558       .  S
C1331      C1412   1.497       .  S
C1332      C1334   1.553   1_545  S
C1333      H1339   1.074       .  S
C1333      C1334   1.365       .  D
C1334      C1407   1.481       .  S
C1335      H1340   1.085       .  S
C1335      C1336   1.367       .  D
C1336      C1394   1.498       .  S
C1341      C1345   1.530       .  S
C1341      C1436   1.537       .  S
C1342      H1349   1.083       .  S
C1342      C1343   1.362       .  D
C1343      C1344   1.575       .  S
C1343      C1366   1.504       .  S
C1344      C1348   1.553       .  S
C1344      H1350   1.110       .  S
C1345      H1351   1.087       .  S
C1345      C1346   1.370       .  D
C1346      C1379   1.487       .  S
C1347      H1352   1.084       .  S
C1347      C1348   1.360       .  D
C1348      C1445   1.495       .  S
O1353     Cu1361   2.045       .  S
O1353      C1363   1.280       .  A
O1354     Cu1361   2.027       .  S
O1354      C1364   1.278       .  A
O1355     Cu1361   2.035       .  S
O1355      C1365   1.277       .  A
O1356     Cu1361   2.033       .  S
O1356      C1366   1.285       .  A
O1357     Cu1362   2.058       .  S
O1357      C1366   1.279       .  A
O1358     Cu1362   2.061       .  S
O1358      C1365   1.286       .  A
O1359     Cu1362   2.049       .  S
O1359      C1364   1.280       .  A
O1360     Cu1362   2.061       .  S
O1360      C1363   1.284       .  A
Cu1361    Cu1362   2.364       .  S
O1367     Cu1375   2.021       .  S
O1367      C1377   1.284       .  A
O1368     Cu1375   2.040       .  S
O1368      C1378   1.277       .  A
O1369     Cu1375   2.064       .  S
O1369      C1379   1.286       .  A
O1370     Cu1375   2.069       .  S
O1370      C1380   1.280       .  A
O1371     Cu1376   1.997       .  S
O1371      C1380   1.282       .  A
O1372     Cu1376   2.003       .  S
O1372      C1379   1.273       .  A
O1373     Cu1376   2.011       .  S
O1373      C1378   1.282       .  A
O1374     Cu1376   2.035       .  S
O1374      C1377   1.275       .  A
Cu1375    Cu1376   2.367       .  S
O1381     Cu1389   2.035       .  S
O1381      C1391   1.281       .  A
O1382     Cu1389   2.050       .  S
O1382      C1392   1.277       .  A
O1383     Cu1389   2.079       .  S
O1383      C1393   1.288       .  A
O1384     Cu1389   2.079       .  S
O1384      C1394   1.283       .  A
O1385     Cu1390   1.976       .  S
O1385      C1394   1.276       .  A
O1386     Cu1390   2.005       .  S
O1386      C1393   1.273       .  A
O1387     Cu1390   2.010       .  S
O1387      C1392   1.283       .  A
O1388     Cu1390   2.025       .  S
O1388      C1391   1.277       .  A
Cu1389    Cu1390   2.366       .  S
O1395     Cu1403   2.024       .  S
O1395      C1405   1.274       .  A
O1396     Cu1403   1.992       .  S
O1396      C1406   1.280       .  A
O1397     Cu1403   2.022       .  S
O1397      C1407   1.278       .  A
O1398     Cu1403   2.020       .  S
O1398      C1408   1.284       .  A
O1399     Cu1404   2.035       .  S
O1399      C1408   1.275       .  A
O1400     Cu1404   2.028       .  S
O1400      C1407   1.279       .  A
O1401     Cu1404   2.083       .  S
O1401      C1406   1.283       .  A
O1402     Cu1404   2.081       .  S
O1402      C1405   1.288       .  A
Cu1403    Cu1404   2.364       .  S
C1409      C1410   1.400       .  A
C1409      C1414   1.402       .  A
C1410      C1411   1.401       .  A
C1410      H1415   1.082       .  S
C1411      C1412   1.411       .  A
C1411      O1416   1.368       .  S
C1412      C1413   1.412       .  A
C1413      C1414   1.402       .  A
C1413      H1417   1.084       .  S
C1414      O1418   1.371       .  S
O1416      H1420   0.991       .  S
O1418      H1419   0.992       .  S
C1421      C1422   1.412       .  A
C1421      C1426   1.415       .  A
C1422      C1423   1.404       .  A
C1422      H1427   1.081       .  S
C1423      C1424   1.403       .  A
C1423      O1428   1.373       .  S
C1424      C1425   1.402       .  A
C1425      C1426   1.406       .  A
C1425      H1429   1.083       .  S
C1426      O1430   1.376       .  S
O1428      H1432   0.991       .  S
O1430      H1431   0.992       .  S
C1433      C1434   1.399       .  A
C1433      C1438   1.401       .  A
C1434      C1435   1.405       .  A
C1434      H1439   1.084       .  S
C1435      C1436   1.417       .  A
C1435      O1440   1.376       .  S
C1436      C1437   1.410       .  A
C1437      C1438   1.395       .  A
C1437      H1441   1.083       .  S
C1438      O1442   1.372       .  S
O1440      H1444   0.992       .  S
O1442      H1443   0.992       .  S
C1445      C1446   1.411       .  A
C1446      C1447   1.401       .  A
C1446      H1451   1.083       .  S
C1447      O1452   1.371       .  S
C1448      C1449   1.404       .  A
C1449      C1450   1.407       .  A
C1449      H1453   1.084       .  S
C1450      O1454   1.368       .  S
O1452      H1456   0.992       .  S
O1454      H1455   0.991       .  S
C1457      C1458   1.395       .  A
C1457      C1462   1.410       .  A
C1458      C1459   1.394       .  A
C1458      H1463   1.084       .  S
C1459      C1460   1.417       .  A
C1459      O1464   1.374       .  S
C1460      C1461   1.404       .  A
C1461      C1462   1.406       .  A
C1461      H1465   1.083       .  S
C1462      O1466   1.370       .  S
O1464      H1468   0.992       .  S
O1466      H1467   0.991       .  S
C1469      C1470   1.415       .  A
C1469      C1474   1.414       .  A
C1470      C1471   1.401       .  A
C1470      H1475   1.082       .  S
C1471      C1472   1.400       .  A
C1471      O1476   1.372       .  S
C1472      C1473   1.402       .  A
C1473      C1474   1.408       .  A
C1473      H1477   1.084       .  S
C1474      O1478   1.375       .  S
O1476      H1480   0.992       .  S
O1478      H1479   0.992       .  S
C1481      C1482   1.396       .  A
C1481      C1486   1.410       .  A
C1482      C1483   1.395       .  A
C1482      H1487   1.084       .  S
C1483      C1484   1.420       .  A
C1483      O1488   1.374       .  S
C1484      C1485   1.402       .  A
C1485      C1486   1.406       .  A
C1485      H1489   1.084       .  S
C1486      O1490   1.367       .  S
O1488      H1492   0.993       .  S
O1490      H1491   0.991       .  S
C1493      C1494   1.408       .  A
C1493      C1498   1.420       .  A
C1494      C1495   1.398       .  A
C1494      H1499   1.082       .  S
C1495      C1496   1.404       .  A
C1495      O1500   1.372       .  S
C1496      C1497   1.397       .  A
C1497      C1498   1.406       .  A
C1497      H1501   1.084       .  S
C1498      O1502   1.377       .  S
O1500      H1504   0.992       .  S
O1502      H1503   0.992       .  S
C1505      C1506   1.396       .  A
C1505      C1510   1.409       .  A
C1506      C1507   1.399       .  A
C1506      H1511   1.084       .  S
C1507      C1508   1.418       .  A
C1507      O1512   1.373       .  S
C1508      C1509   1.400       .  A
C1509      C1510   1.402       .  A
C1509      H1513   1.083       .  S
C1510      O1514   1.369       .  S
O1512      H1516   0.990   1_556  S
O1514      H1515   0.991       .  S
C1517      C1518   1.399       .  A
C1517      C1522   1.402       .  A
C1518      C1519   1.399       .  A
C1518      H1523   1.077       .  S
C1519      C1520   1.411       .  A
C1519      O1524   1.371       .  S
C1520      C1521   1.409       .  A
C1521      C1522   1.394       .  A
C1521      H1525   1.083       .  S
C1522      O1526   1.372       .  S
O1524      H1528   0.992       .  S
O1526      H1527   0.990       .  S
C1529      C1530   1.400       .  A
C1529      C1534   1.411       .  A
C1530      C1531   1.408       .  A
C1530      H1535   1.084       .  S
C1531      C1532   1.414       .  A
C1531      O1536   1.371       .  S
C1532      C1533   1.401       .  A
C1533      C1534   1.402       .  A
C1533      H1537   1.083       .  S
C1534      O1538   1.372       .  S
O1536      H1540   0.991       .  S
O1538      H1539   0.992       .  S
C1541      C1542   1.400       .  A
C1541      C1546   1.403       .  A
C1542      C1543   1.405       .  A
C1542      H1547   1.083       .  S
C1543      C1544   1.418       .  A
C1543      O1548   1.375       .  S
C1544      C1545   1.408       .  A
C1545      C1546   1.393       .  A
C1545      H1549   1.077       .  S
C1546      O1550   1.373       .  S
O1548      H1552   0.991       .  S
O1550      H1551   0.991       .  S
C1553      C1558   1.415       .  A
C1554      C1555   1.397       .  A
C1554      H1559   1.082       .  S
C1555      C1556   1.401       .  A
C1555      O1560   1.372       .  S
C1557      C1558   1.403       .  A
C1557      H1561   1.084       .  S
C1558      O1562   1.376       .  S
O1560      H1564   0.991       .  S
O1562      H1563   0.993       .  S
C1565      C1570   1.405       .  A
C1566      C1567   1.404       .  A
C1566      H1571   1.083       .  S
C1567      O1572   1.368       .  S
C1568      C1569   1.413       .  A
C1569      C1570   1.406       .  A
C1569      H1573   1.083       .  S
C1570      O1574   1.372       .  S
O1572      H1576   0.991       .  S
O1574      H1575   0.992       .  S
C1577      C1578   1.402       .  A
C1578      C1579   1.404       .  A
C1578      H1583   1.083       .  S
C1579      C1580   1.407       .  A
C1579      O1584   1.368       .  S
C1581      C1582   1.402       .  A
C1581      H1585   1.084       .  S
C1582      O1586   1.376   1_556  S
O1584      H1588   0.992       .  S
O1586      H1587   0.993       .  S
C1589      C1594   1.418       .  A
C1590      C1591   1.401       .  A
C1590      H1595   1.081       .  S
C1591      O1596   1.368       .  S
C1592      C1593   1.398       .  A
C1593      C1594   1.406       .  A
C1593      H1597   1.084       .  S
C1594      O1598   1.377       .  S
O1596      H1600   0.992       .  S
O1598      H1599   0.991       .  S
