geometry optimzed in LAMMPS
_audit_creation_date              2020-12-01 
_audit_creation_method            'lammps2cif' 
_symmetry_space_group_name_H-M    'P1' 
_symmetry_Int_Tables_number       1 
_symmetry_cell_setting            triclinic 
loop_ 
_symmetry_equiv_pos_as_xyz 
  x,y,z 
_cell_length_a                    58.25892426 
_cell_length_b                    58.23713386354648 
_cell_length_c                    58.20687130623619 
_cell_angle_alpha                 89.70267695633221 
_cell_angle_beta                  89.82843956664071 
_cell_angle_gamma                 89.57496246078854 
loop_ 
_atom_site_label 
_atom_site_type_symbol 
_atom_site_fract_x 
_atom_site_fract_y 
_atom_site_fract_z 
_atom_site_charge 
N1          N  0.33813296  0.87948906  0.73768904    -0.07300
N2          N  0.32371507  0.88901064  0.75231188    -0.59400
N3          N  0.36372661  0.83138855  0.71954339    -0.07000
N4          N  0.36456755  0.80891937  0.72241831    -0.61600
N5          N  0.37532237  0.84169607  0.73567125    -0.06600
N6          N  0.38449573  0.82659984  0.74982631    -0.59400
N7          N  0.32691779  0.86935686  0.72120418    -0.06300
N8          N  0.30462363  0.87149354  0.72419153    -0.61900
C9          C  0.30285881  0.88395745  0.74357112     0.94900
C10         C  0.37789985  0.80619179  0.74124048     0.94700
N11         N  0.37389229  0.84360553  0.65041095    -0.07500
N12         N  0.38127003  0.82689844  0.63643131    -0.60000
N13         N  0.32648382  0.87122652  0.66894015    -0.05600
N14         N  0.30402961  0.87215524  0.66835686    -0.61300
N15         N  0.33585570  0.88333586  0.65223234    -0.07500
N16         N  0.31897414  0.89300057  0.63985683    -0.60300
N17         N  0.36212001  0.83406929  0.66723434    -0.05300
N18         N  0.36102115  0.81177440  0.66524878    -0.61300
Mn19       Mn  0.34465748  0.85135053  0.69415352     1.18400
C20         C  0.37280904  0.80706911  0.64616220     0.97000
C21         C  0.29911538  0.88563423  0.65034112     0.97600
N22         N  0.41284551  0.87835076  0.73735353    -0.07500
N23         N  0.42746265  0.86710581  0.75055535    -0.63800
N24         N  0.38621296  0.92829191  0.72433858    -0.06300
N25         N  0.38357981  0.95037824  0.72865527    -0.64500
N26         N  0.37532800  0.91593525  0.73966945    -0.07000
N27         N  0.36484951  0.92916649  0.75467424    -0.64100
N28         N  0.42383285  0.89060853  0.72203355    -0.05900
N29         N  0.44616981  0.88800850  0.72434448    -0.64800
Mn30       Mn  0.37548369  0.87879013  0.73834840     1.10700
C31         C  0.44823965  0.87308374  0.74207423     0.98200
C32         C  0.36991960  0.95062477  0.74751668     0.98300
N33         N  0.37719290  0.92250617  0.65344484    -0.07100
N34         N  0.37090850  0.93967747  0.63951625    -0.62400
N35         N  0.42416316  0.89474164  0.67003435    -0.06400
N36         N  0.44658960  0.89529431  0.66894226    -0.59200
N37         N  0.41519289  0.88403186  0.65233767    -0.07700
N38         N  0.43234199  0.87710934  0.63863561    -0.62000
N39         N  0.38792710  0.93118444  0.67128394    -0.06700
N40         N  0.38933834  0.95359177  0.66993479    -0.59200
Mn41       Mn  0.37558578  0.88331392  0.65025387     1.20200
Mn42       Mn  0.40562719  0.91152740  0.69698193     1.10100
Cl43       Cl  0.37539464  0.88127572  0.69438271    -0.87100
C44         C  0.37878415  0.95898380  0.65022836     0.95200
C45         C  0.45192421  0.88438174  0.64949316     0.95000
N46         N  0.21513416  0.86088664  0.83610999    -0.07300
N47         N  0.21849756  0.86423531  0.81394849    -0.59400
N48         N  0.22646796  0.83405098  0.88650572    -0.07000
N49         N  0.23703408  0.81906882  0.89987686    -0.61600
N50         N  0.21086373  0.82382777  0.87413288    -0.06600
N51         N  0.21049145  0.80163738  0.87865501    -0.59400
N52         N  0.23114219  0.87087693  0.84812082    -0.06300
N53         N  0.24570988  0.88151145  0.83453156    -0.61900
C54         C  0.23750874  0.87736738  0.81330474     0.94900
C55         C  0.22677996  0.79891217  0.89489063     0.94700
N56         N  0.21271904  0.88524995  0.93297359    -0.07500
N57         N  0.21580977  0.88448055  0.95542566    -0.60000
N58         N  0.23172338  0.90862884  0.88405268    -0.05600
N59         N  0.24725720  0.92163435  0.87406118    -0.61300
N60         N  0.21599968  0.92130756  0.89409480    -0.07500
N61         N  0.22056740  0.94329418  0.89136695    -0.60300
N62         N  0.22797569  0.87236896  0.92251829    -0.05300
N63         N  0.24169986  0.86239694  0.93748461    -0.61300
Mn64       Mn  0.23011856  0.87128597  0.88533048     1.18400
C65         C  0.23385308  0.86992090  0.95799925     0.97000
C66         C  0.24004086  0.94326379  0.87865625     0.97600
N67         N  0.15934822  0.82645849  0.86993152    -0.07500
N68         N  0.15787733  0.80405389  0.87003833    -0.63800
N69         N  0.14531296  0.87502364  0.84263893    -0.06300
N70         N  0.13316081  0.88446793  0.82555225    -0.64500
N71         N  0.16246468  0.86315503  0.83366869    -0.07000
N72         N  0.16252316  0.86421291  0.81116239    -0.64100
N73         N  0.14250961  0.83624692  0.88150538    -0.05900
N74         N  0.12902504  0.81960001  0.88987979    -0.64800
Mn75       Mn  0.18695236  0.84343752  0.85306729     1.10700
C76         C  0.13910946  0.79947158  0.88239450     0.98200
C77         C  0.14441810  0.87752985  0.80602116     0.98300
N78         N  0.16294488  0.92465428  0.89361497    -0.07100
N79         N  0.16235201  0.94716924  0.89324152    -0.62400
N80         N  0.14317306  0.87780142  0.92173771    -0.06400
N81         N  0.12924042  0.87031336  0.93840412    -0.59200
N82         N  0.16009597  0.88925452  0.93125666    -0.07700
N83         N  0.15808633  0.89004056  0.95368655    -0.62000
N84         N  0.14545557  0.91577847  0.88251299    -0.06700
N85         N  0.13250248  0.93301177  0.87430127    -0.59200
Mn86       Mn  0.18785203  0.90541501  0.91313965     1.20200
Mn87       Mn  0.14231468  0.87617020  0.88215164     1.10100
Cl88       Cl  0.18646418  0.87413591  0.88343295    -0.87100
C89         C  0.14347692  0.95261598  0.88123540     0.95200
C90         C  0.13895195  0.87830188  0.95827493     0.95000
N91         N  0.41413886  0.72344200  0.89226280    -0.07300
N92         N  0.43599649  0.72795477  0.88892804    -0.59400
N93         N  0.36617783  0.73557391  0.92175692    -0.07000
N94         N  0.35672751  0.74949364  0.93685753    -0.61600
N95         N  0.37945552  0.72053214  0.93205117    -0.06600
N96         N  0.37948943  0.72383681  0.95442065    -0.59400
N97         N  0.40112229  0.73880109  0.88203765    -0.06300
N98         N  0.41385233  0.75418734  0.87140017    -0.61900
C99         C  0.43561105  0.74706759  0.87569487     0.94900
C100        C  0.36499059  0.74181123  0.95720869     0.94700
N101        N  0.31624226  0.71575502  0.87600610    -0.07500
N102        N  0.29412712  0.71568331  0.88101719    -0.60000
N103        N  0.36167745  0.73635326  0.84725872    -0.05600
N104        N  0.37092191  0.75086923  0.83261777    -0.61300
N105        N  0.35141458  0.71976171  0.83632869    -0.07500
N106        N  0.35322068  0.72260158  0.81391031    -0.60300
N107        N  0.32671132  0.73216830  0.88706640    -0.05300
N108        N  0.31206220  0.74357792  0.89998714    -0.61300
Mn109      Mn  0.36376153  0.73657747  0.88450147     1.18400
C110        C  0.29183330  0.73301396  0.89624551     0.97000
C111        C  0.36547852  0.74208546  0.81191243     0.97600
N112        N  0.38448109  0.66850173  0.93207136    -0.07500
N113        N  0.38537859  0.66797602  0.95452782    -0.63800
N114        N  0.41071545  0.65284573  0.88346252    -0.06300
N115        N  0.42839500  0.64024374  0.87564702    -0.64500
N116        N  0.41899652  0.67108152  0.89371406    -0.07000
N117        N  0.44145619  0.67144483  0.89312023    -0.64100
N118        N  0.37368013  0.65060701  0.92370646    -0.05900
N119        N  0.36700589  0.63735788  0.94133265    -0.64800
Mn120      Mn  0.39944987  0.69584026  0.91258219     1.10700
C121        C  0.37456616  0.64870369  0.96056230     0.98200
C122        C  0.44755668  0.65247070  0.88175658     0.98300
N123        N  0.35555873  0.66719148  0.83576514    -0.07100
N124        N  0.35538912  0.66642224  0.81328012    -0.62400
N125        N  0.33150005  0.64722633  0.88406874    -0.06400
N126        N  0.31590258  0.63204338  0.89134277    -0.59200
N127        N  0.32063993  0.66375142  0.87289844    -0.07700
N128        N  0.29850335  0.66037917  0.87204939    -0.62000
N129        N  0.36876415  0.65098910  0.84472703    -0.06700
N130        N  0.37806204  0.63885310  0.82764994    -0.59200
Mn131      Mn  0.33574974  0.69164877  0.85498047     1.20200
Mn132      Mn  0.37122664  0.64860060  0.88409984     1.10100
Cl133      Cl  0.36756029  0.69273155  0.88402156    -0.87100
C134        C  0.36936092  0.64885368  0.80810251     0.95200
C135        C  0.29534644  0.64074818  0.88343790     0.95000
N136        N  0.32974807  0.03492839  0.89812826    -0.07300
N137        N  0.30799006  0.03001741  0.89440672    -0.59400
N138        N  0.37892521  0.02463094  0.92703280    -0.07000
N139        N  0.38982395  0.01204071  0.94241116    -0.61600
N140        N  0.36543696  0.03958358  0.93716248    -0.06600
N141        N  0.36683683  0.03752380  0.95970619    -0.59400
N142        N  0.34315358  0.01959699  0.88847012    -0.06300
N143        N  0.33097892  0.00401621  0.87779770    -0.61900
C144        C  0.30906030  0.01076701  0.88145995     0.94900
C145        C  0.38236997  0.02040306  0.96276274     0.94700
N146        N  0.42727071  0.04261619  0.87775731    -0.07500
N147        N  0.44976046  0.04172407  0.88020359    -0.60000
N148        N  0.38058766  0.02183752  0.85220708    -0.05600
N149        N  0.37018908  0.00734981  0.83851287    -0.61300
N150        N  0.39016695  0.03830098  0.84023610    -0.07500
N151        N  0.38679414  0.03533731  0.81808485    -0.60300
N152        N  0.41738911  0.02668174  0.89021132    -0.05300
N153        N  0.43288158  0.01457873  0.90150628    -0.61300
Mn154      Mn  0.38025427  0.02239986  0.88962341     1.18400
C155        C  0.45300825  0.02431224  0.89531494     0.97000
C156        C  0.37418135  0.01601636  0.81728639     0.97600
N157        N  0.35967216  0.09174710  0.93509712    -0.07500
N158        N  0.35837405  0.09349438  0.95748771    -0.63800
N159        N  0.33364954  0.10582116  0.88620534    -0.06300
N160        N  0.31632234  0.11831679  0.87763865    -0.64500
N161        N  0.32501959  0.08799771  0.89719983    -0.07000
N162        N  0.30252694  0.08792006  0.89641139    -0.64100
N163        N  0.37065583  0.10918604  0.92575880    -0.05900
N164        N  0.37708133  0.12332310  0.94257662    -0.64800
Mn165      Mn  0.34461473  0.06360848  0.91703287     1.10700
C166        C  0.36912243  0.11307741  0.96238265     0.98200
C167        C  0.29692449  0.10671422  0.88422822     0.98300
N168        N  0.38709055  0.09096394  0.83754817    -0.07100
N169        N  0.38717995  0.09188207  0.81501098    -0.62400
N170        N  0.41288897  0.11083567  0.88556881    -0.06400
N171        N  0.42905408  0.12485526  0.89369363    -0.59200
N172        N  0.42321838  0.09442924  0.87384316    -0.07700
N173        N  0.44553671  0.09679423  0.87338929    -0.62000
N174        N  0.37467138  0.10766337  0.84655066    -0.06700
N175        N  0.36585925  0.12031512  0.82945085    -0.59200
Mn176      Mn  0.40705463  0.06658543  0.85704932     1.20200
Mn177      Mn  0.37298476  0.11015181  0.88612175     1.10100
Cl178      Cl  0.37622071  0.06603594  0.88752498    -0.87100
C179        C  0.37397047  0.11010553  0.80976917     0.95200
C180        C  0.44937021  0.11564096  0.88563976     0.95000
N181        N  0.38723753  0.83322748  0.04745323    -0.07300
N182        N  0.38598673  0.81098992  0.04368553    -0.59400
N183        N  0.41211706  0.88301843  0.03382849    -0.07000
N184        N  0.42631333  0.89328693  0.01957414    -0.61600
N185        N  0.42345733  0.87111513  0.04927446    -0.06600
N186        N  0.44577422  0.87282505  0.04574843    -0.59400
N187        N  0.37609309  0.84487447  0.03167979    -0.06300
N188        N  0.36670902  0.83087847  0.01683058    -0.61900
C189        C  0.37299241  0.80984239  0.02460212     0.94900
C190        C  0.44728753  0.88694562  0.02725647     0.94700
N191        N  0.36145477  0.92981435  0.05008610    -0.07500
N192        N  0.36407373  0.95226610  0.04898137    -0.60000
N193        N  0.33761033  0.88107085  0.03164104    -0.05600
N194        N  0.32430094  0.87046746  0.01694656    -0.61300
N195        N  0.32528930  0.89126322  0.04748139    -0.07500
N196        N  0.30318870  0.88802665  0.04389095    -0.60300
N197        N  0.37397252  0.91951721  0.03447623    -0.05300
N198        N  0.38563118  0.93465752  0.02243403    -0.61300
Mn199      Mn  0.37493388  0.88222225  0.03219305     1.18400
C200        C  0.37937450  0.95501786  0.03173501     0.97000
C201        C  0.30287784  0.87476477  0.02488197     0.97600
N202        N  0.42207120  0.86786123  0.10196081    -0.07500
N203        N  0.44444530  0.86737979  0.10363774    -0.63800
N204        N  0.37427651  0.84000183  0.11733901    -0.06300
N205        N  0.36545945  0.82281782  0.12976256    -0.64500
N206        N  0.38622494  0.83116780  0.10021215    -0.07000
N207        N  0.38587794  0.80865803  0.10059034    -0.64100
N208        N  0.41232761  0.87873839  0.11927470    -0.05900
N209        N  0.42893174  0.88601030  0.13327292    -0.64800
Mn210      Mn  0.40496037  0.85061411  0.07481310     1.10700
C211        C  0.44897049  0.87859682  0.12302830     0.98200
C212        C  0.37299667  0.80325640  0.11893229     0.98300
N213        N  0.32383055  0.89082115  0.10026881    -0.07100
N214        N  0.30143185  0.89143663  0.10161883    -0.62400
N215        N  0.37009005  0.91901263  0.11930783    -0.06400
N216        N  0.37666694  0.93601443  0.13316148    -0.59200
N217        N  0.35842080  0.92810516  0.10211947    -0.07700
N218        N  0.35676860  0.95043348  0.10374099    -0.62000
N219        N  0.33311549  0.87987849  0.11784482    -0.06700
N220        N  0.31625733  0.87266577  0.13166628    -0.59200
Mn221      Mn  0.34198583  0.91006021  0.07494100     1.20200
Mn222      Mn  0.37257092  0.87941355  0.12028614     1.10100
Cl223      Cl  0.37364196  0.88053942  0.07610678    -0.87100
C224        C  0.29653774  0.88020889  0.12106652     0.95200
C225        C  0.36802125  0.95561904  0.12294859     0.95000
N226        N  0.53558353  0.89512493  0.83388446    -0.07300
N227        N  0.53374455  0.89202970  0.81157418    -0.59400
N228        N  0.52126366  0.92182694  0.88306703    -0.07000
N229        N  0.50907270  0.93694760  0.89466183    -0.61600
N230        N  0.53766592  0.93204262  0.87157059    -0.06600
N231        N  0.53697318  0.95442168  0.87486071    -0.59400
N232        N  0.51889310  0.88489859  0.84494037    -0.06300
N233        N  0.50535509  0.87430533  0.83042315    -0.61900
C234        C  0.51488448  0.87889257  0.80970234     0.94900
C235        C  0.51913968  0.95717952  0.88946709     0.94700
N236        N  0.53293030  0.87067921  0.93088902    -0.07500
N237        N  0.52975818  0.87203391  0.95327298    -0.60000
N238        N  0.51556929  0.84749888  0.88168697    -0.05600
N239        N  0.49994921  0.83485408  0.87165481    -0.61300
N240        N  0.53054809  0.83455263  0.89251761    -0.07500
N241        N  0.52532218  0.81267203  0.89030800    -0.60300
N242        N  0.51802494  0.88363103  0.91993460    -0.05300
N243        N  0.50434251  0.89417506  0.93460471    -0.61300
Mn244      Mn  0.51759168  0.88465942  0.88240005     1.18400
C245        C  0.51200786  0.88695933  0.95537006     0.97000
C246        C  0.50626872  0.81313355  0.87704579     0.97600
N247        N  0.58957706  0.92872389  0.87024896    -0.07500
N248        N  0.59153563  0.95103486  0.87003927    -0.63800
N249        N  0.60449737  0.88051119  0.84283185    -0.06300
N250        N  0.61739394  0.87189381  0.82576848    -0.64500
N251        N  0.58791378  0.89294826  0.83361132    -0.07000
N252        N  0.58903319  0.89320948  0.81113783    -0.64100
N253        N  0.60604374  0.91864792  0.88209360    -0.05900
N254        N  0.61980129  0.93499440  0.89036333    -0.64800
Mn255      Mn  0.56270820  0.91234555  0.85212008     1.10700
C256        C  0.61023207  0.95524510  0.88244798     0.98200
C257        C  0.60728186  0.88015478  0.80597176     0.98300
N258        N  0.58348543  0.83086592  0.89359364    -0.07100
N259        N  0.58326618  0.80841070  0.89261651    -0.62400
N260        N  0.60262695  0.87738645  0.92251369    -0.06400
N261        N  0.61509582  0.88579469  0.93976993    -0.59200
N262        N  0.58532275  0.86583012  0.93142078    -0.07700
N263        N  0.58575994  0.86571067  0.95397479    -0.62000
N264        N  0.60147834  0.83951771  0.88294439    -0.06700
N265        N  0.61400882  0.82218455  0.87445963    -0.59200
Mn266      Mn  0.55819872  0.85013636  0.91226781     1.20200
Mn267      Mn  0.60548036  0.87891299  0.88274689     1.10100
Cl268      Cl  0.56126348  0.88147534  0.88242887    -0.87100
C269        C  0.60215372  0.80280444  0.88070251     0.95200
C270        C  0.60426420  0.87800169  0.95929372     0.95000
N271        N  0.87207819  0.33386125  0.65276443    -0.07300
N272        N  0.88066804  0.31807423  0.63843296    -0.59400
N273        N  0.82432217  0.35908509  0.67428121    -0.07000
N274        N  0.80184910  0.35878089  0.67348664    -0.61600
N275        N  0.83318630  0.37190354  0.65781348    -0.06600
N276        N  0.81604053  0.38088556  0.64548085    -0.59400
N277        N  0.86049986  0.32319835  0.66903292    -0.06300
N278        N  0.86067572  0.30097339  0.66634476    -0.61900
C279        C  0.87308984  0.29758705  0.64739948     0.94900
C280        C  0.79658350  0.37235537  0.65564404     0.94700
N281        N  0.83904563  0.36336382  0.74343872    -0.07500
N282        N  0.82551258  0.37353086  0.75846713    -0.60000
N283        N  0.86446860  0.31708462  0.72018788    -0.05600
N284        N  0.86808913  0.29474369  0.71905689    -0.61300
N285        N  0.87683801  0.32623231  0.73644313    -0.07500
N286        N  0.88928930  0.31033456  0.74676908    -0.60300
N287        N  0.82693518  0.35424185  0.72693971    -0.05300
N288        N  0.80482083  0.35773563  0.73041903    -0.61300
Mn289      Mn  0.84367094  0.33829182  0.69760405     1.18400
C290        C  0.80422399  0.36985971  0.75012555     0.97000
C291        C  0.88369740  0.29077370  0.73570540     0.97600
N292        N  0.87301699  0.41255489  0.65972635    -0.07500
N293        N  0.86524161  0.43039254  0.64741206    -0.63800
N294        N  0.92138907  0.38494100  0.67233409    -0.06300
N295        N  0.94371763  0.38589950  0.67051778    -0.64500
N296        N  0.91199355  0.37486889  0.65454818    -0.07000
N297        N  0.92873709  0.36869497  0.63999355    -0.64100
N298        N  0.88405913  0.42045013  0.67774008    -0.05900
N299        N  0.88393394  0.44299884  0.67822173    -0.64800
Mn300      Mn  0.87254541  0.37335534  0.65446205     1.10700
C301        C  0.87218952  0.44934400  0.65942033     0.98200
C302        C  0.94855208  0.37587125  0.65049141     0.98300
N303        N  0.91360401  0.36351751  0.73870340    -0.07100
N304        N  0.92896122  0.35169242  0.75044240    -0.62400
N305        N  0.88589413  0.41371735  0.73030804    -0.06400
N306        N  0.88347311  0.43557079  0.73543560    -0.59200
N307        N  0.87603506  0.40069992  0.74582805    -0.07700
N308        N  0.86649473  0.41348083  0.76194742    -0.62000
N309        N  0.92367639  0.37701079  0.72376625    -0.06700
N310        N  0.94615929  0.37480715  0.72505612    -0.59200
Mn311      Mn  0.87641883  0.36328257  0.74207880     1.20200
Mn312      Mn  0.90381985  0.39930774  0.70105887     1.10100
Cl313      Cl  0.87402796  0.36867631  0.69855846    -0.87100
C314        C  0.94925665  0.35880606  0.74167773     0.95200
C315        C  0.87117015  0.43523585  0.75509794     0.95000
N316        N  0.92981849  0.21189799  0.88834654    -0.07300
N317        N  0.95233896  0.21384748  0.88692217    -0.59400
N318        N  0.88371425  0.23435737  0.91369157    -0.07000
N319        N  0.87616923  0.25110442  0.92683879    -0.61600
N320        N  0.89361506  0.21828698  0.92612066    -0.06600
N321        N  0.89332241  0.22382196  0.94805861    -0.59400
N322        N  0.91964790  0.22764199  0.87574637    -0.06300
N323        N  0.93490711  0.24058337  0.86533516    -0.61900
C324        C  0.95524590  0.23163064  0.87217015     0.94900
C325        C  0.88224049  0.24428475  0.94821343     0.94700
N326        N  0.83212381  0.21968457  0.86838130    -0.07500
N327        N  0.81028723  0.22500006  0.87110789    -0.60000
N328        N  0.88151013  0.22790978  0.83905215    -0.05600
N329        N  0.89394135  0.23795104  0.82295893    -0.61300
N330        N  0.86794683  0.21263223  0.82992357    -0.07500
N331        N  0.87073543  0.21186868  0.80749704    -0.60300
N332        N  0.84522974  0.23531605  0.87758055    -0.05300
N333        N  0.83261505  0.25160773  0.88704284    -0.61300
Mn334      Mn  0.88255525  0.23211979  0.87635180     1.18400
C335        C  0.81084007  0.24489758  0.88287519     0.97000
C336        C  0.88715630  0.22756063  0.80335849     0.97600
N337        N  0.88971613  0.16515303  0.93023008    -0.07500
N338        N  0.89069731  0.16448370  0.95272950    -0.63800
N339        N  0.91454693  0.14300203  0.88277198    -0.06300
N340        N  0.93029125  0.12789473  0.87534459    -0.64500
N341        N  0.92521684  0.15967728  0.89350359    -0.07000
N342        N  0.94743972  0.15643336  0.89392204    -0.64100
N343        N  0.87730460  0.14824615  0.92198596    -0.05900
N344        N  0.86952265  0.13567692  0.93958466    -0.64800
Mn345      Mn  0.90965684  0.18864898  0.90981101     1.10700
C346        C  0.87815759  0.14620627  0.95873609     0.98200
C347        C  0.95078768  0.13674206  0.88273649     0.98300
N348        N  0.86141669  0.16151310  0.83338447    -0.07100
N349        N  0.86072066  0.15977186  0.81098243    -0.62400
N350        N  0.83543876  0.14943099  0.88289473    -0.06400
N351        N  0.81808009  0.13732752  0.89173181    -0.59200
N352        N  0.82677245  0.16700677  0.87140681    -0.07700
N353        N  0.80423424  0.16726383  0.87207055    -0.62000
N354        N  0.87281262  0.14439737  0.84296797    -0.06700
N355        N  0.88032479  0.13049124  0.82626414    -0.59200
Mn356      Mn  0.84671058  0.19024499  0.85077053     1.20200
Mn357      Mn  0.87496323  0.14456817  0.88264756     1.10100
Cl358      Cl  0.87842353  0.18864573  0.88001205    -0.87100
C359        C  0.87239896  0.14053785  0.80630600     0.95200
C360        C  0.79859622  0.14884998  0.88476252     0.95000
N361        N  0.71167515  0.37018120  0.83856576    -0.07300
N362        N  0.71556565  0.37097254  0.81627526    -0.59400
N363        N  0.72911327  0.34626723  0.88781146    -0.07000
N364        N  0.74543208  0.33353760  0.89696836    -0.61600
N365        N  0.71435447  0.33354351  0.87687061    -0.06600
N366        N  0.72041796  0.31170828  0.87821242    -0.59400
N367        N  0.72654377  0.38270640  0.84959438    -0.06300
N368        N  0.74095018  0.39238256  0.83509579    -0.61900
C369        C  0.73375895  0.38512699  0.81429788     0.94900
C370        C  0.73976820  0.31195295  0.89109282     0.94700
N371        N  0.70953963  0.39389720  0.93568370    -0.07500
N372        N  0.71312569  0.39238808  0.95803860    -0.60000
N373        N  0.72354409  0.42015213  0.88617365    -0.05600
N374        N  0.73711076  0.43480748  0.87579887    -0.61300
N375        N  0.70736456  0.43088501  0.89756461    -0.07500
N376        N  0.70960120  0.45333047  0.89529905    -0.60300
N377        N  0.72604928  0.38366228  0.92428329    -0.05300
N378        N  0.74118231  0.37473728  0.93847409    -0.61300
Mn379      Mn  0.72684358  0.38328861  0.88696256     1.18400
C380        C  0.73293052  0.38019882  0.95948358     0.97000
C381        C  0.72822498  0.45546820  0.88149777     0.97600
N382        N  0.66144752  0.33021383  0.87535369    -0.07500
N383        N  0.66145279  0.30773897  0.87529895    -0.63800
N384        N  0.64137800  0.37635579  0.84663735    -0.06300
N385        N  0.62745858  0.38250696  0.82939859    -0.64500
N386        N  0.65939621  0.36566717  0.83791905    -0.07000
N387        N  0.65827165  0.36435132  0.81549982    -0.64100
N388        N  0.64313313  0.33873576  0.88569090    -0.05900
N389        N  0.63015336  0.32125801  0.89288621    -0.64800
Mn390      Mn  0.68668534  0.34966655  0.85708710     1.10700
C391        C  0.64209398  0.30194839  0.88620916     0.98200
C392        C  0.63847889  0.37475625  0.80997436     0.98300
N393        N  0.65526430  0.42776981  0.89859630    -0.07100
N394        N  0.65397433  0.45012546  0.89803476    -0.62400
N395        N  0.64034692  0.37957830  0.92568989    -0.06400
N396        N  0.62731787  0.37077099  0.94245246    -0.59200
N397        N  0.65674130  0.39178926  0.93515769    -0.07700
N398        N  0.65525277  0.39180215  0.95759802    -0.62000
N399        N  0.63887364  0.41812011  0.88654351    -0.06700
N400        N  0.62587779  0.43491278  0.87735703    -0.59200
Mn401      Mn  0.68210200  0.41122782  0.91707012     1.20200
Mn402      Mn  0.63902066  0.37822547  0.88609011     1.10100
Cl403      Cl  0.68307884  0.38052647  0.88682041    -0.87100
C404        C  0.63589606  0.45490148  0.88485773     0.95200
C405        C  0.63700997  0.37879580  0.96232239     0.95000
N406        N  0.03353632  0.38487657  0.83418651    -0.07300
N407        N  0.03100522  0.38118782  0.81201690    -0.59400
N408        N  0.01764736  0.41160613  0.88251741    -0.07000
N409        N  0.00351806  0.42592255  0.89296754    -0.61600
N410        N  0.03307395  0.42297317  0.87074117    -0.06600
N411        N  0.02981472  0.44525989  0.87274451    -0.59400
N412        N  0.01842625  0.37322703  0.84609054    -0.06300
N413        N  0.00526381  0.36121749  0.83236114    -0.61900
C414        C  0.01344440  0.36619449  0.81116550     0.94900
C415        C  0.01135563  0.44687524  0.88668972     0.94700
N416        N  0.03606996  0.36484828  0.93233208    -0.07500
N417        N  0.03315420  0.36776091  0.95465864    -0.60000
N418        N  0.02108181  0.33674835  0.88431940    -0.05600
N419        N  0.00878407  0.32149928  0.87329822    -0.61300
N420        N  0.03750443  0.32653555  0.89589929    -0.07500
N421        N  0.03677903  0.30411117  0.89325668    -0.60300
N422        N  0.01963068  0.37515560  0.92082907    -0.05300
N423        N  0.00527368  0.38553035  0.93490740    -0.61300
Mn424      Mn  0.01831554  0.37413072  0.88346042     1.18400
C425        C  0.01397740  0.38099135  0.95594062     0.97000
C426        C  0.01884016  0.30124867  0.87902382     0.97600
N427        N  0.08571886  0.42473249  0.86804046    -0.07500
N428        N  0.08630816  0.44722574  0.86767793    -0.63800
N429        N  0.10358678  0.37682828  0.84110285    -0.06300
N430        N  0.11642041  0.36888497  0.82366626    -0.64500
N431        N  0.08573902  0.38774783  0.83237266    -0.07000
N432        N  0.08592217  0.38754050  0.80991060    -0.64100
N433        N  0.10341124  0.41584644  0.87909762    -0.05900
N434        N  0.11645410  0.43295458  0.88668195    -0.64800
Mn435      Mn  0.05950655  0.40535230  0.85117205     1.10700
C436        C  0.10536952  0.45249268  0.87925159     0.98200
C437        C  0.10483190  0.37580331  0.80417916     0.98300
N438        N  0.08950229  0.32787559  0.89561852    -0.07100
N439        N  0.09064440  0.30543887  0.89554851    -0.62400
N440        N  0.10576056  0.37637219  0.92075620    -0.06400
N441        N  0.11951243  0.38447002  0.93719357    -0.59200
N442        N  0.08889875  0.36512870  0.93078550    -0.07700
N443        N  0.09067717  0.36506417  0.95316033    -0.62000
N444        N  0.10571559  0.33708263  0.88280927    -0.06700
N445        N  0.11832721  0.32014025  0.87361977    -0.59200
Mn446      Mn  0.06304202  0.34600038  0.91398382     1.20200
Mn447      Mn  0.10643797  0.37653193  0.88086168     1.10100
Cl448      Cl  0.06223313  0.37558045  0.88240318    -0.87100
C449        C  0.10846646  0.30036276  0.88192002     0.95200
C450        C  0.10963787  0.37699731  0.95739288     0.95000
N451        N  0.88684111  0.33353214  0.04510136    -0.07300
N452        N  0.88730366  0.31192149  0.03846499    -0.59400
N453        N  0.91294609  0.38342196  0.03352786    -0.07000
N454        N  0.92750826  0.39363562  0.01954308    -0.61600
N455        N  0.92394862  0.37040941  0.04834178    -0.06600
N456        N  0.94627817  0.37141096  0.04474705    -0.59400
N457        N  0.87611899  0.34635783  0.02990510    -0.06300
N458        N  0.86885363  0.33379211  0.01273079    -0.61900
C459        C  0.87569141  0.31230561  0.01836918     0.94900
C460        C  0.94830674  0.38613071  0.02682802     0.94700
N461        N  0.86291895  0.43069445  0.05230749    -0.07500
N462        N  0.86457282  0.45323677  0.05105874    -0.60000
N463        N  0.83804680  0.38329715  0.03256296    -0.05600
N464        N  0.82415024  0.37409587  0.01746625    -0.61300
N465        N  0.82625892  0.39303624  0.04910080    -0.07500
N466        N  0.80400688  0.39090930  0.04559322    -0.60300
N467        N  0.87509432  0.42085713  0.03612992    -0.05300
N468        N  0.88552583  0.43643190  0.02351554    -0.61300
Mn469      Mn  0.87554598  0.38362925  0.03232808     1.18400
C470        C  0.87892786  0.45654405  0.03311400     0.97000
C471        C  0.80297348  0.37878232  0.02588447     0.97600
N472        N  0.92380092  0.36533908  0.10049951    -0.07500
N473        N  0.94624165  0.36525296  0.10095532    -0.63800
N474        N  0.87612418  0.33801837  0.11648467    -0.06300
N475        N  0.86825574  0.32096720  0.12967016    -0.64500
N476        N  0.88737247  0.32909870  0.09891137    -0.07000
N477        N  0.88782780  0.30652472  0.09994286    -0.64100
N478        N  0.91485018  0.37625127  0.11818516    -0.05900
N479        N  0.93211319  0.38385278  0.13123301    -0.64800
Mn480      Mn  0.90548789  0.34924982  0.07331683     1.10700
C481        C  0.95173361  0.37671527  0.11995246     0.98200
C482        C  0.87598555  0.30140247  0.11908801     0.98300
N483        N  0.82588210  0.39026866  0.10175835    -0.07100
N484        N  0.80345243  0.38988392  0.10258491    -0.62400
N485        N  0.87371525  0.41702743  0.12030414    -0.06400
N486        N  0.88251008  0.43356335  0.13347351    -0.59200
N487        N  0.86135211  0.42687185  0.10406984     0.16300
N488        N  0.86122231  0.44922509  0.10569105    -0.62000
N489        N  0.83527654  0.37807390  0.11842217    -0.06700
N490        N  0.81837772  0.36886160  0.13101316    -0.59200
Mn491      Mn  0.84383096  0.41027900  0.07693536     1.20200
Mn492      Mn  0.87505650  0.37734558  0.12013935     1.10100
Cl493      Cl  0.87495119  0.38000646  0.07592537    -0.87100
C494        C  0.79852062  0.37662804  0.12070305     0.95200
C495        C  0.87426079  0.45365470  0.12389505     0.95000
N496        N  0.82391053  0.53807294  0.90060557    -0.07300
N497        N  0.80167440  0.53628465  0.89723857    -0.59400
N498        N  0.87291436  0.52422029  0.92778922    -0.07000
N499        N  0.88360777  0.51141993  0.94317026    -0.61600
N500        N  0.86128108  0.54066388  0.93784627    -0.06600
N501        N  0.86354077  0.53942744  0.96034660    -0.59400
N502        N  0.83512651  0.52146567  0.89035756    -0.06300
N503        N  0.82076010  0.50793589  0.87953177    -0.61900
C504        C  0.79997080  0.51753409  0.88389060     0.94900
C505        C  0.87777420  0.52126832  0.96339351     0.94700
N506        N  0.92079671  0.53718984  0.87732966    -0.07500
N507        N  0.94317191  0.53435715  0.87918226    -0.60000
N508        N  0.87227768  0.51862386  0.85329116    -0.05600
N509        N  0.86282753  0.50262961  0.84065770    -0.61300
N510        N  0.88312901  0.53349850  0.84035593    -0.07500
N511        N  0.88151047  0.52780514  0.81849175    -0.60300
N512        N  0.90991297  0.52217075  0.89009001    -0.05300
N513        N  0.92459195  0.50879429  0.90101055    -0.61300
Mn514      Mn  0.87258546  0.52085215  0.89049758     1.18400
C515        C  0.94530668  0.51671841  0.89424111     0.97000
C516        C  0.86857818  0.50857252  0.81894893     0.97600
N517        N  0.85912495  0.59286455  0.93391883    -0.07500
N518        N  0.85867580  0.59536117  0.95622415    -0.63800
N519        N  0.83179757  0.60652261  0.88532911    -0.06300
N520        N  0.81454200  0.61884839  0.87631705    -0.64500
N521        N  0.82294057  0.59006278  0.89809250    -0.07000
N522        N  0.80048713  0.59073311  0.89822005    -0.64100
N523        N  0.87058837  0.60937437  0.92352672    -0.05900
N524        N  0.87852188  0.62357773  0.93961217    -0.64800
Mn525      Mn  0.84169287  0.56541914  0.91778638     1.10700
C526        C  0.87066143  0.61438337  0.95997417     0.98200
C527        C  0.79504272  0.60855388  0.88472597     0.98300
N528        N  0.88315914  0.58639726  0.83600990    -0.07100
N529        N  0.88290376  0.58623198  0.81350314    -0.62400
N530        N  0.91109198  0.60745922  0.88189738    -0.06400
N531        N  0.92785028  0.62170739  0.88821022    -0.59200
N532        N  0.92050925  0.58973221  0.87135708    -0.07700
N533        N  0.94292687  0.59147496  0.87017000    -0.62000
N534        N  0.87191852  0.60422865  0.84438560    -0.06700
N535        N  0.86370494  0.61664086  0.82683756    -0.59200
Mn536      Mn  0.90210151  0.56170577  0.85598173     1.20200
Mn537      Mn  0.87138026  0.60872917  0.88373523     1.10100
Cl538      Cl  0.87205901  0.56472036  0.88695701    -0.87100
C539        C  0.87081107  0.60497760  0.80759931     0.95200
C540        C  0.94774505  0.61130988  0.88060654     0.95000
N541        N  0.83206043  0.87876606  0.23430851    -0.07300
N542        N  0.81647549  0.88923214  0.24698566    -0.59400
N543        N  0.86094295  0.83046598  0.22095329    -0.07000
N544        N  0.86388873  0.80826553  0.22440621    -0.61600
N545        N  0.87094914  0.84227447  0.23714782    -0.06600
N546        N  0.88115259  0.82843030  0.25194394    -0.59400
N547        N  0.82220369  0.86667923  0.21827741    -0.06300
N548        N  0.79970650  0.86842603  0.21967165    -0.61900
C549        C  0.79635462  0.88271846  0.23753727     0.94900
C550        C  0.87677753  0.80726625  0.24365091     0.94700
N551        N  0.87287193  0.83883928  0.15101167    -0.07500
N552        N  0.88065643  0.82209471  0.13733949    -0.60000
N553        N  0.82394594  0.86472114  0.16628683    -0.05600
N554        N  0.80154729  0.86415120  0.16462638    -0.61300
N555        N  0.83331479  0.87658206  0.14943232    -0.07500
N556        N  0.81650444  0.88441892  0.13576880    -0.60300
N557        N  0.86156216  0.82936095  0.16819322    -0.05300
N558        N  0.86123871  0.80693952  0.16672539    -0.61300
Mn559      Mn  0.84210227  0.84755148  0.19343003     1.18400
C560        C  0.87308437  0.80220421  0.14760203     0.97000
C561        C  0.79663552  0.87634422  0.14570219     0.97600
N562        N  0.90663216  0.88099190  0.23903104    -0.07500
N563        N  0.92000075  0.87356112  0.25568673    -0.63800
N564        N  0.88013934  0.92826189  0.22058846    -0.06300
N565        N  0.87789506  0.95057877  0.22385267    -0.64500
N566        N  0.86805571  0.91684665  0.23575474    -0.07000
N567        N  0.85716670  0.93099192  0.24959577    -0.64100
N568        N  0.91862598  0.89205824  0.22351221    -0.05900
N569        N  0.94049274  0.89257252  0.22935265    -0.64800
Mn570      Mn  0.86931572  0.87963972  0.23726477     1.10700
C571        C  0.94113131  0.88063159  0.24936123     0.98200
C572        C  0.86327680  0.95202667  0.24191465     0.98300
N573        N  0.87296422  0.91786208  0.15081431    -0.07100
N574        N  0.86492803  0.93467165  0.13725231    -0.62400
N575        N  0.92096485  0.89185623  0.16994274    -0.06400
N576        N  0.94341748  0.89302277  0.16866773    -0.59200
N577        N  0.91225462  0.88050492  0.15247556    -0.07700
N578        N  0.92945247  0.87355680  0.13895862    -0.62000
N579        N  0.88370088  0.92724931  0.16825026    -0.06700
N580        N  0.88326448  0.94963263  0.16711900    -0.59200
Mn581      Mn  0.87293498  0.87848304  0.14917111     1.20200
Mn582      Mn  0.90118778  0.90993229  0.19542200     1.10100
Cl583      Cl  0.87155624  0.87881965  0.19349969    -0.87100
C584        C  0.87165786  0.95449140  0.14795082     0.95200
C585        C  0.94881930  0.88162422  0.14945014     0.95000
N586        N  0.92051265  0.72041395  0.39599962    -0.07300
N587        N  0.94242371  0.72592106  0.39504375    -0.59400
N588        N  0.87090149  0.73226307  0.42252592    -0.07000
N589        N  0.85937315  0.74506197  0.43720245    -0.61600
N590        N  0.88313405  0.71674714  0.43342599    -0.06600
N591        N  0.88035795  0.71861904  0.45579844    -0.59400
N592        N  0.90804549  0.73570063  0.38501532    -0.06300
N593        N  0.92106651  0.75190164  0.37621558    -0.61900
C594        C  0.94251752  0.74548186  0.38237099     0.94900
C595        C  0.86526184  0.73620840  0.45791124     0.94700
N596        N  0.82348009  0.71441948  0.37452965    -0.07500
N597        N  0.80115982  0.71531464  0.37823153    -0.60000
N598        N  0.87074923  0.73346165  0.34767456    -0.05600
N599        N  0.88013656  0.74807639  0.33317680    -0.61300
N600        N  0.86041360  0.71705360  0.33650575    -0.07500
N601        N  0.86238022  0.72008137  0.31415499    -0.60300
N602        N  0.83388180  0.73068080  0.38580419    -0.05300
N603        N  0.81901348  0.74295993  0.39762980    -0.61300
Mn604      Mn  0.87086517  0.73383758  0.38515592     1.18400
C605        C  0.79866514  0.73311874  0.39285119     0.97000
C606        C  0.87477547  0.73947478  0.31232782     0.97600
N607        N  0.88820291  0.66431289  0.43312757    -0.07500
N608        N  0.88887297  0.66224890  0.45558110    -0.63800
N609        N  0.91573079  0.64950966  0.38524081    -0.06300
N610        N  0.93337579  0.63622705  0.37870529    -0.64500
N611        N  0.92399521  0.66739501  0.39620591    -0.07000
N612        N  0.94642555  0.66681626  0.39726998    -0.64100
N613        N  0.87761609  0.64689436  0.42353858    -0.05900
N614        N  0.87068032  0.63255023  0.44007457    -0.64800
Mn615      Mn  0.90421712  0.69222523  0.41482183     1.10700
C616        C  0.87797392  0.64253998  0.46003466     0.98200
C617        C  0.95249558  0.64751462  0.38643410     0.98300
N618        N  0.86230733  0.66462752  0.33554148    -0.07100
N619        N  0.86177740  0.66376130  0.31307600    -0.62400
N620        N  0.83650902  0.64545754  0.38377941    -0.06400
N621        N  0.82024554  0.63153990  0.39213789    -0.59200
N622        N  0.82635301  0.66228546  0.37242850    -0.07700
N623        N  0.80400545  0.66033599  0.37256868    -0.62000
N624        N  0.87464027  0.64775658  0.34443374    -0.06700
N625        N  0.88275750  0.63486080  0.32719051    -0.59200
Mn626      Mn  0.84297523  0.68959060  0.35452667     1.20200
Mn627      Mn  0.87624056  0.64566833  0.38417059     1.10100
Cl628      Cl  0.87374244  0.68989889  0.38459213    -0.87100
C629        C  0.87447363  0.64534650  0.30760959     0.95200
C630        C  0.79994655  0.64127579  0.38471719     0.95000
N631        N  0.71441300  0.85915744  0.33343736    -0.07300
N632        N  0.71609016  0.86184246  0.31101663    -0.59400
N633        N  0.72947721  0.83423964  0.38315039    -0.07000
N634        N  0.74182436  0.82011030  0.39584935    -0.61600
N635        N  0.71314871  0.82312021  0.37261569    -0.06600
N636        N  0.71412922  0.80103318  0.37771522    -0.59400
N637        N  0.73054592  0.87044120  0.34404373    -0.06300
N638        N  0.74364676  0.88117054  0.32907303    -0.61900
C639        C  0.73424250  0.87587347  0.30858225     0.94900
C640        C  0.73198077  0.79948754  0.39246975     0.94700
N641        N  0.71580577  0.88369611  0.43001257    -0.07500
N642        N  0.71899929  0.88171295  0.45234546    -0.60000
N643        N  0.73181911  0.90896478  0.38059940    -0.05600
N644        N  0.74643832  0.92307593  0.37069052    -0.61300
N645        N  0.71620853  0.92057428  0.39201906    -0.07500
N646        N  0.71972351  0.94278087  0.39021348    -0.60300
N647        N  0.73149307  0.87210250  0.41875660    -0.05300
N648        N  0.74567939  0.86180528  0.43310754    -0.61300
Mn649      Mn  0.73176281  0.87144561  0.38143512     1.18400
C650        C  0.73765946  0.86790057  0.45405563     0.97000
C651        C  0.73848370  0.94413578  0.37667175     0.97600
N652        N  0.66069923  0.82514197  0.37017036    -0.07500
N653        N  0.65826739  0.80284586  0.36986624    -0.63800
N654        N  0.64569383  0.87333241  0.34217028    -0.06300
N655        N  0.63346570  0.88251115  0.32494025    -0.64500
N656        N  0.66226369  0.86060360  0.33325753    -0.07000
N657        N  0.66184327  0.86081247  0.31077055    -0.64100
N658        N  0.64392115  0.83547495  0.38136162    -0.05900
N659        N  0.62963793  0.81949735  0.38939683    -0.64800
Mn660      Mn  0.68768344  0.84167151  0.35219164     1.10700
C661        C  0.63902100  0.79924082  0.38176281     0.98200
C662        C  0.64412486  0.87449059  0.30542504     0.98300
N663        N  0.66388450  0.92323961  0.39405755    -0.07100
N664        N  0.66305936  0.94577068  0.39447329    -0.62400
N665        N  0.64586632  0.87546584  0.42141907    -0.06400
N666        N  0.63330329  0.86648497  0.43846160    -0.59200
N667        N  0.66338626  0.88628383  0.43050543    -0.07700
N668        N  0.66327446  0.88501390  0.45295283    -0.62000
N669        N  0.64649543  0.91454014  0.38269873    -0.06700
N670        N  0.63337257  0.93190961  0.37505031    -0.59200
Mn671      Mn  0.68976356  0.90363903  0.41184798     1.20200
Mn672      Mn  0.64370513  0.87489466  0.38186572     1.10100
Cl673      Cl  0.68782450  0.87301288  0.38174421    -0.87100
C674        C  0.64413545  0.95140818  0.38265066     0.95200
C675        C  0.64464662  0.87273096  0.45812024     0.95000
N676        N  0.03566787  0.89789955  0.33978976    -0.07300
N677        N  0.03079020  0.89700664  0.31770545    -0.59400
N678        N  0.02451286  0.92329068  0.39008495    -0.07000
N679        N  0.01168506  0.93786355  0.40163407    -0.61600
N680        N  0.03995747  0.93417546  0.37788856    -0.06600
N681        N  0.03788294  0.95657234  0.38073819    -0.59400
N682        N  0.02007390  0.88723004  0.35197102    -0.06300
N683        N  0.00428187  0.87858166  0.33853007    -0.61900
C684        C  0.01121323  0.88473657  0.31720323     0.94900
C685        C  0.02030037  0.95857622  0.39589302     0.94700
N686        N  0.04000129  0.87248103  0.43658982    -0.07500
N687        N  0.03785022  0.87347419  0.45912236    -0.60000
N688        N  0.02019345  0.84892562  0.38847937    -0.05600
N689        N  0.00414762  0.83585062  0.37972539    -0.61300
N690        N  0.03604367  0.83636678  0.39848601    -0.07500
N691        N  0.03110617  0.81437562  0.39700090    -0.60300
N692        N  0.02431441  0.88516534  0.42653811    -0.05300
N693        N  0.01117292  0.89528770  0.44193552    -0.61300
Mn694      Mn  0.02158959  0.88621820  0.38927423     1.18400
C695        C  0.01990959  0.88798582  0.46223342     0.97000
C696        C  0.01121442  0.81433223  0.38509890     0.97600
N697        N  0.09219292  0.93154489  0.37255203    -0.07500
N698        N  0.09454111  0.95386429  0.37163153    -0.63800
N699        N  0.10558252  0.88320441  0.34461183    -0.06300
N700        N  0.11744733  0.87442644  0.32695665    -0.64500
N701        N  0.08833676  0.89546367  0.33631836    -0.07000
N702        N  0.08798310  0.89526227  0.31380836    -0.64100
N703        N  0.10944066  0.92138256  0.38321451    -0.05900
N704        N  0.12403217  0.93761395  0.39006484    -0.64800
Mn705      Mn  0.06407749  0.91495777  0.35639575     1.10700
C706        C  0.11426523  0.95784364  0.38244252     0.98200
C707        C  0.10598080  0.88218284  0.30776794     0.98300
N708        N  0.08893168  0.83328168  0.39675945    -0.07100
N709        N  0.08943943  0.81080414  0.39710792    -0.62400
N710        N  0.10915576  0.88011668  0.42385633    -0.06400
N711        N  0.12276038  0.88792249  0.44055561    -0.59200
N712        N  0.09209141  0.86884855  0.43349182    -0.07700
N713        N  0.09356760  0.86860204  0.45587735    -0.62000
N714        N  0.10631170  0.84187894  0.38509893    -0.06700
N715        N  0.11909338  0.82437125  0.37719970    -0.59200
Mn716      Mn  0.06435060  0.85250687  0.41637354     1.20200
Mn717      Mn  0.10945727  0.88160262  0.38415628     1.10100
Cl718      Cl  0.06531653  0.88376444  0.38647019    -0.87100
C719        C  0.10805728  0.80495748  0.38494637     0.95200
C720        C  0.11255955  0.88034450  0.46054738     0.95000
N721        N  0.82829527  0.03593882  0.39671464    -0.07300
N722        N  0.80611604  0.03181506  0.39551205    -0.59400
N723        N  0.87865559  0.02273517  0.42117630    -0.07000
N724        N  0.88966630  0.00878184  0.43524298    -0.61600
N725        N  0.86685807  0.03803958  0.43271915    -0.06600
N726        N  0.86948886  0.03480615  0.45502336    -0.59400
N727        N  0.84010708  0.02062617  0.38522896    -0.06300
N728        N  0.82632580  0.00572131  0.37566895    -0.61900
C729        C  0.80519301  0.01297790  0.38214822     0.94900
C730        C  0.88406182  0.01660774  0.45634892     0.94700
N731        N  0.92462734  0.04049175  0.37058240    -0.07500
N732        N  0.94705848  0.03940278  0.37348362    -0.60000
N733        N  0.87575261  0.02254980  0.34663963    -0.05600
N734        N  0.86438997  0.00850514  0.33332342    -0.61300
N735        N  0.88568956  0.03864796  0.33443125    -0.07500
N736        N  0.88140020  0.03583721  0.31236296    -0.60300
N737        N  0.91441118  0.02447964  0.38263019    -0.05300
N738        N  0.92952665  0.01219863  0.39417379    -0.61300
Mn739      Mn  0.87734823  0.02189665  0.38385994     1.18400
C740        C  0.94981876  0.02174505  0.38840183     0.97000
C741        C  0.86786781  0.01703633  0.31200859     0.97600
N742        N  0.86232278  0.09035090  0.43166358    -0.07500
N743        N  0.86099380  0.09189139  0.45397056    -0.63800
N744        N  0.83347896  0.10596085  0.38430727    -0.06300
N745        N  0.81580290  0.11793126  0.37566883    -0.64500
N746        N  0.82533619  0.08843961  0.39616401    -0.07000
N747        N  0.80285173  0.08802600  0.39584459    -0.64100
N748        N  0.87195153  0.10852094  0.42227168    -0.05900
N749        N  0.87726460  0.12312817  0.43911135    -0.64800
Mn750      Mn  0.84557843  0.06326508  0.41448401     1.10700
C751        C  0.87015136  0.11216218  0.45887993     0.98200
C752        C  0.79675687  0.10618951  0.38300625     0.98300
N753        N  0.88534669  0.09161543  0.33324490    -0.07100
N754        N  0.88526209  0.09322832  0.31075082    -0.62400
N755        N  0.91261849  0.10967978  0.38077554    -0.06400
N756        N  0.92918365  0.12324076  0.38887861    -0.59200
N757        N  0.92240038  0.09301327  0.36890738    -0.07700
N758        N  0.94480875  0.09476463  0.36861474    -0.62000
N759        N  0.87314587  0.10811701  0.34292071    -0.06700
N760        N  0.86403548  0.12122830  0.32631528    -0.59200
Mn761      Mn  0.90476303  0.06591526  0.35142033     1.20200
Mn762      Mn  0.87277854  0.10991548  0.38258820     1.10100
Cl763      Cl  0.87512455  0.06580953  0.38305604    -0.87100
C764        C  0.87209717  0.11162328  0.30633529     0.95200
C765        C  0.94931371  0.11350636  0.38097342     0.95000
N766        N  0.88904121  0.82663979  0.54505189    -0.07300
N767        N  0.88559713  0.80439542  0.54300442    -0.59400
N768        N  0.91517828  0.87600245  0.53034087    -0.07000
N769        N  0.92975904  0.88773135  0.51768963    -0.61600
N770        N  0.92603495  0.86443112  0.54636956    -0.06600
N771        N  0.94835125  0.86785388  0.54495788    -0.59400
N772        N  0.87828285  0.83807040  0.52884919    -0.06300
N773        N  0.86703224  0.82394787  0.51547850    -0.61900
C774        C  0.87169985  0.80302526  0.52453947     0.94900
C775        C  0.95036116  0.88265715  0.52712391     0.94700
N776        N  0.86493862  0.92376927  0.54442613    -0.07500
N777        N  0.86708909  0.94618471  0.54208604    -0.60000
N778        N  0.84064832  0.87461607  0.52739992    -0.05600
N779        N  0.82717923  0.86324694  0.51342896    -0.61300
N780        N  0.82850051  0.88542115  0.54296157    -0.07500
N781        N  0.80640883  0.88183081  0.53992597    -0.60300
N782        N  0.87728938  0.91291813  0.52903993    -0.05300
N783        N  0.88833206  0.92766949  0.51592103    -0.61300
Mn784      Mn  0.87795800  0.87544293  0.52800044     1.18400
C785        C  0.88189951  0.94838463  0.52431678     0.97000
C786        C  0.80586085  0.86774292  0.52155356     0.97600
N787        N  0.92430715  0.86278733  0.59856282    -0.07500
N788        N  0.94669993  0.86363627  0.59965991    -0.63800
N789        N  0.87659353  0.83483421  0.61445471    -0.06300
N790        N  0.86828834  0.81771948  0.62742998    -0.64500
N791        N  0.88880014  0.82575528  0.59766259    -0.07000
N792        N  0.88928604  0.80327415  0.59880801    -0.64100
N793        N  0.91438617  0.87450738  0.61520418    -0.05900
N794        N  0.93083909  0.88382989  0.62809484    -0.64800
Mn795      Mn  0.90726983  0.84459022  0.57192163     1.10700
C796        C  0.95100354  0.87663474  0.61795201     0.98200
C797        C  0.87658937  0.79802582  0.61726424     0.98300
N798        N  0.82644379  0.88624126  0.59531879    -0.07100
N799        N  0.80400465  0.88598045  0.59562539    -0.62400
N800        N  0.87253756  0.91423996  0.61434536    -0.06400
N801        N  0.87923053  0.93126034  0.62809350    -0.59200
N802        N  0.86151636  0.92336173  0.59675976    -0.07700
N803        N  0.86040714  0.94577064  0.59801751    -0.62000
N804        N  0.83533020  0.87489009  0.61284129    -0.06700
N805        N  0.81816171  0.86650184  0.62556002    -0.59200
Mn806      Mn  0.84512468  0.90490042  0.56984918     1.20200
Mn807      Mn  0.87470502  0.87460649  0.61605177     1.10100
Cl808      Cl  0.87625970  0.87489619  0.57189248    -0.87100
C809        C  0.79867237  0.87376264  0.61434544     0.95200
C810        C  0.87137441  0.95093403  0.61742830     0.95000
N811        N  0.11999316  0.09662959  0.48738559    -0.07300
N812        N  0.10948502  0.08269053  0.50179445    -0.59400
N813        N  0.16990124  0.12092791  0.47286359    -0.07000
N814        N  0.19197159  0.12092866  0.47788309    -0.61600
N815        N  0.15814720  0.13259502  0.48810415    -0.06600
N816        N  0.17185362  0.14097824  0.50379922    -0.59400
N817        N  0.13170115  0.08493315  0.47212336    -0.06300
N818        N  0.12958998  0.06272573  0.47578983    -0.61900
C819        C  0.11554818  0.06155819  0.49425883     0.94900
C820        C  0.19293359  0.13378741  0.49712849     0.94700
N821        N  0.16342015  0.13021659  0.40193064    -0.07500
N822        N  0.18092883  0.13675310  0.38852516    -0.60000
N823        N  0.13506021  0.08374445  0.41976476    -0.05600
N824        N  0.13607455  0.06133857  0.41907017    -0.61300
N825        N  0.12472222  0.09251850  0.40160217    -0.07500
N826        N  0.11859146  0.07516689  0.38793145    -0.60300
N827        N  0.17189475  0.11923026  0.41990947    -0.05300
N828        N  0.19434256  0.11799882  0.41918953    -0.61300
Mn829      Mn  0.15227794  0.10216867  0.44610232     1.18400
C830        C  0.20019238  0.12873424  0.39970616     0.97000
C831        C  0.12589653  0.05569412  0.39940515     0.97600
N832        N  0.12218715  0.17127111  0.48513800    -0.07500
N833        N  0.13376977  0.18545760  0.49815809    -0.63800
N834        N  0.07321789  0.14622749  0.46872370    -0.06300
N835        N  0.05081914  0.14361274  0.47028060    -0.64500
N836        N  0.08372448  0.13478796  0.48506315    -0.07000
N837        N  0.06881352  0.12386606  0.49806528    -0.64100
N838        N  0.11166241  0.18256374  0.46869050    -0.05900
N839        N  0.11564463  0.20476466  0.47018710    -0.64800
Mn840      Mn  0.12089638  0.13393924  0.48720760     1.10700
C841        C  0.12970548  0.20626550  0.48851708     0.98200
C842        C  0.04839256  0.12950796  0.48859173     0.98300
N843        N  0.08384808  0.13404176  0.39992885    -0.07100
N844        N  0.06693217  0.12531566  0.38718548    -0.62400
N845        N  0.11148765  0.18181863  0.41633036    -0.06400
N846        N  0.11163960  0.20423366  0.41482321    -0.59200
N847        N  0.12336713  0.17208684  0.39967352    -0.07700
N848        N  0.13208798  0.18875254  0.38635679    -0.62000
N849        N  0.07440846  0.14643532  0.41637676    -0.06700
N850        N  0.05194353  0.14658231  0.41523616    -0.59200
Mn851      Mn  0.12381642  0.13221007  0.39893932     1.20200
Mn852      Mn  0.09248017  0.16452215  0.44252496     1.10100
Cl853      Cl  0.12241976  0.13321020  0.44322926    -0.87100
C854        C  0.04700229  0.13348588  0.39714259     0.95200
C855        C  0.12435321  0.20881901  0.39625398     0.95000
N856        N  0.62207465  0.08906059  0.28055042    -0.07300
N857        N  0.63307323  0.07473559  0.26696796    -0.59400
N858        N  0.57360692  0.11562168  0.29721401    -0.07000
N859        N  0.55121407  0.11788994  0.29464855    -0.61600
N860        N  0.58455669  0.12678559  0.28104114    -0.06600
N861        N  0.56995161  0.13700937  0.26708884    -0.59400
N862        N  0.61114373  0.07783673  0.29671800    -0.06300
N863        N  0.61420745  0.05549873  0.29442230    -0.61900
C864        C  0.62809855  0.05386726  0.27584948     0.94900
C865        C  0.54917360  0.13139357  0.27580003     0.94700
N866        N  0.58418150  0.12667645  0.36617341    -0.07500
N867        N  0.56730555  0.13586881  0.37892570    -0.60000
N868        N  0.61093966  0.07788392  0.34920735    -0.05600
N869        N  0.61155377  0.05540849  0.34983236    -0.61300
N870        N  0.62296211  0.08700842  0.36592802    -0.07500
N871        N  0.63224550  0.06983416  0.37833283    -0.60300
N872        N  0.57476810  0.11491688  0.34944136    -0.05300
N873        N  0.55236223  0.11575646  0.35024168    -0.61300
Mn874      Mn  0.59240912  0.09633120  0.32324219     1.18400
C875        C  0.54743334  0.12874199  0.36845814     0.97000
C876        C  0.62475631  0.05006544  0.36786081     0.97600
N877        N  0.62182141  0.16363089  0.27995213    -0.07500
N878        N  0.60994492  0.17801854  0.26707189    -0.63800
N879        N  0.67124808  0.13659919  0.29406908    -0.06300
N880        N  0.69338427  0.13382426  0.28990417    -0.64500
N881        N  0.65907922  0.12577523  0.27871617    -0.07000
N882        N  0.67250986  0.11525160  0.26388861    -0.64100
N883        N  0.63387637  0.17478548  0.29516329    -0.05900
N884        N  0.63053285  0.19710422  0.29299375    -0.64800
Mn885      Mn  0.62183918  0.12635968  0.27928228     1.10700
C886        C  0.61537130  0.19885140  0.27551685     0.98200
C887        C  0.69390600  0.12029534  0.27104728     0.98300
N888        N  0.66331900  0.12723842  0.36469576    -0.07100
N889        N  0.67993195  0.11887507  0.37816954    -0.62400
N890        N  0.63685676  0.17559789  0.34731104    -0.06400
N891        N  0.63702239  0.19809381  0.34773162    -0.59200
N892        N  0.62531821  0.16684388  0.36474544    -0.07700
N893        N  0.61736186  0.18425841  0.37752728    -0.62000
N894        N  0.67283950  0.13839347  0.34737313    -0.06700
N895        N  0.69532380  0.13826945  0.34876700    -0.59200
Mn896      Mn  0.62389768  0.12697993  0.36723003     1.20200
Mn897      Mn  0.65411357  0.15650667  0.32095753     1.10100
Cl898      Cl  0.62313989  0.12655620  0.32312508    -0.87100
C899        C  0.69979493  0.12620407  0.36790488     0.95200
C900        C  0.62493944  0.20377425  0.36644612     0.95000
N901        N  0.12217053  0.86097598  0.09332598    -0.07300
N902        N  0.13015723  0.87357815  0.07575919    -0.59400
N903        N  0.07417228  0.84573151  0.12066016    -0.07000
N904        N  0.05177341  0.84687952  0.12041023    -0.61600
N905        N  0.08321313  0.86321856  0.13157597    -0.06600
N906        N  0.06614061  0.87677691  0.13908022    -0.59400
N907        N  0.11112191  0.84327123  0.08481217    -0.06300
N908        N  0.11132929  0.84334873  0.06231203    -0.61900
C909        C  0.12315757  0.86208695  0.05641543     0.94900
C910        C  0.04650350  0.86608331  0.13179166     0.94700
N911        N  0.08436423  0.77794238  0.13716675    -0.07500
N912        N  0.06993618  0.76387228  0.14727208    -0.60000
N913        N  0.11117275  0.79013654  0.08790138    -0.05600
N914        N  0.11206845  0.78444625  0.06600666    -0.61300
N915        N  0.12199359  0.77481947  0.10047587    -0.07500
N916        N  0.13071152  0.75846878  0.08756094    -0.60300
N917        N  0.07331911  0.79318563  0.12472104    -0.05300
N918        N  0.05097525  0.78975072  0.12592455    -0.61300
Mn919      Mn  0.09230963  0.81824501  0.10425160     1.18400
C920        C  0.04913310  0.77154164  0.14035571     0.97000
C921        C  0.12463281  0.76479544  0.06607675     0.97600
N922        N  0.12314401  0.86425621  0.17292983    -0.07500
N923        N  0.11462827  0.87782729  0.18945372    -0.63800
N924        N  0.17110692  0.84508206  0.14664908    -0.06300
N925        N  0.19346287  0.84604930  0.14769900    -0.64500
N926        N  0.16227468  0.86230314  0.13479150    -0.07000
N927        N  0.17950951  0.87555272  0.12746674    -0.64100
N928        N  0.13492025  0.84755182  0.18282992    -0.05900
N929        N  0.13503659  0.84932022  0.20524535    -0.64800
Mn930      Mn  0.12267729  0.86452401  0.13305490     1.10700
C931        C  0.12247514  0.86806097  0.20957801     0.98200
C932        C  0.19894874  0.86490467  0.13584549     0.98300
N933        N  0.15885155  0.77645106  0.13780264    -0.07100
N934        N  0.17289774  0.76139989  0.12842473    -0.62400
N935        N  0.13247755  0.79571179  0.18507072    -0.06400
N936        N  0.12965851  0.79449334  0.20747445    -0.59200
N937        N  0.12079525  0.77969263  0.17475734    -0.07700
N938        N  0.10955068  0.76717792  0.18986096    -0.62000
N939        N  0.17040022  0.79253458  0.14820184    -0.06700
N940        N  0.19268390  0.78870673  0.14643116    -0.59200
Mn941      Mn  0.12155296  0.77652333  0.13765167     1.20200
Mn942      Mn  0.15247593  0.82025962  0.16576294     1.10100
Cl943      Cl  0.12228894  0.82017459  0.13507119    -0.87100
C944        C  0.19393859  0.76928375  0.13386097     0.95200
C945        C  0.11506898  0.77678733  0.21017841     0.95000
N946        N  0.08603300  0.63162123  0.36523026    -0.07300
N947        N  0.07018057  0.63818351  0.38057385    -0.59400
N948        N  0.11079291  0.58384970  0.34461851    -0.07000
N949        N  0.11136966  0.56135686  0.34426210    -0.61600
N950        N  0.12338200  0.59217640  0.36141309    -0.06600
N951        N  0.13274597  0.57460920  0.37299931    -0.59400
N952        N  0.07556318  0.62138098  0.34809774    -0.06300
N953        N  0.05334563  0.62059504  0.35121426    -0.61900
C954        C  0.04980734  0.63097007  0.37132405     0.94900
C955        C  0.12513552  0.55550821  0.36169090     0.94700
N956        N  0.11919411  0.59694656  0.27605662    -0.07500
N957        N  0.12814772  0.58274938  0.26096649    -0.60000
N958        N  0.07308019  0.62547726  0.29544466    -0.05600
N959        N  0.05080083  0.62891986  0.29319756    -0.61300
N960        N  0.08433947  0.63663909  0.27945426    -0.07500
N961        N  0.07014233  0.64806069  0.26604597    -0.60300
N962        N  0.10807609  0.58562369  0.29199664    -0.05300
N963        N  0.10895130  0.56332896  0.28806133    -0.61300
Mn964      Mn  0.09157539  0.60387856  0.32010865     1.18400
C965        C  0.12171783  0.56183897  0.26869345     0.97000
C966        C  0.04926080  0.64332145  0.27490754     0.97600
N967        N  0.16496089  0.63125329  0.36136572    -0.07500
N968        N  0.18209370  0.62356675  0.37462754    -0.63800
N969        N  0.13943163  0.68030617  0.34630806    -0.06300
N970        N  0.14049476  0.70274841  0.34793754    -0.64500
N971        N  0.12795340  0.67114937  0.36360236    -0.07000
N972        N  0.12081091  0.68806814  0.37740157    -0.64100
N973        N  0.17390018  0.64166272  0.34334685    -0.05900
N974        N  0.19635148  0.64103880  0.34353020    -0.64800
Mn975      Mn  0.12557388  0.63155795  0.36472480     1.10700
C976        C  0.20156884  0.62976538  0.36285620     0.98200
C977        C  0.12906869  0.70775336  0.36729649     0.98300
N978        N  0.12330579  0.67121754  0.27832003    -0.07100
N979        N  0.11271134  0.68669700  0.26556226    -0.62400
N980        N  0.17112272  0.64134217  0.29117856    -0.06400
N981        N  0.19299911  0.63621439  0.28816356    -0.59200
N982        N  0.15852983  0.63133752  0.27561267    -0.07700
N983        N  0.17145809  0.61906192  0.26165557    -0.62000
N984        N  0.13590288  0.68113214  0.29391325    -0.06700
N985        N  0.13439431  0.70360686  0.29218557    -0.59200
Mn986      Mn  0.12133266  0.63410671  0.27661050     1.20200
Mn987      Mn  0.15533097  0.66130899  0.31864047     1.10100
Cl988      Cl  0.12338974  0.63272199  0.32058239    -0.87100
C989        C  0.11979234  0.70679702  0.27451770     0.95200
C990        C  0.19292740  0.62211746  0.26977868     0.95000
N991        N  0.77000940  0.13048104  0.09133455    -0.07300
N992        N  0.75658124  0.14188962  0.07711254    -0.59400
N993        N  0.78471441  0.08019916  0.11495777    -0.07000
N994        N  0.78213683  0.05775960  0.11577304    -0.61600
N995        N  0.76843493  0.09063635  0.12650339    -0.06600
N996        N  0.75436911  0.07557130  0.13571535    -0.59400
N997        N  0.78643599  0.11996639  0.08006756    -0.06300
N998        N  0.78450957  0.12371519  0.05781699    -0.61900
C999        C  0.76589203  0.13760608  0.05626378     0.94900
C1000       C  0.76322850  0.05516380  0.12891644     0.94700
N1001       N  0.85326550  0.08846375  0.12965848    -0.07500
N1002       N  0.86551566  0.07103861  0.13835495    -0.60000
N1003       N  0.83884571  0.11775330  0.08216004    -0.05600
N1004       N  0.84146253  0.11747819  0.05985093    -0.61300
N1005       N  0.85584455  0.12825950  0.09254763    -0.07500
N1006       N  0.87059133  0.13557273  0.07644902    -0.60300
N1007       N  0.83690216  0.07995039  0.11670163    -0.05300
N1008       N  0.83760654  0.05749490  0.11612933    -0.61300
Mn1009     Mn  0.81175585  0.09936521  0.09823988     1.18400
C1010       C  0.85535323  0.05181246  0.12952607     0.97000
C1011       C  0.86111518  0.12849333  0.05606045     0.97600
N1012       N  0.76667230  0.12565916  0.16579916    -0.07500
N1013       N  0.75240293  0.11418712  0.17909325    -0.63800
N1014       N  0.78344453  0.17596222  0.14226271    -0.06300
N1015       N  0.78110094  0.19836861  0.13954697    -0.64500
N1016       N  0.76819177  0.16505545  0.13007884    -0.07000
N1017       N  0.75522614  0.17963815  0.11861884    -0.64100
N1018       N  0.78188629  0.13643100  0.17817408    -0.05900
N1019       N  0.77837092  0.13256606  0.20022387    -0.64800
Mn1020     Mn  0.76752623  0.12791947  0.12850575     1.10700
C1021       C  0.76002378  0.11848482  0.20056537     0.98200
C1022       C  0.76353685  0.20036013  0.12448111     0.98300
N1023       N  0.85360335  0.16740820  0.13482661    -0.07100
N1024       N  0.86657671  0.18477481  0.12720157    -0.62400
N1025       N  0.83404977  0.13780262  0.18093155    -0.06400
N1026       N  0.83362577  0.13647593  0.20338509    -0.59200
N1027       N  0.85191842  0.12698036  0.17210107    -0.07700
N1028       N  0.86425868  0.11805723  0.18941906    -0.62000
N1029       N  0.83595954  0.17610176  0.14613321    -0.06700
N1030       N  0.83649773  0.19856742  0.14655827    -0.59200
Mn1031     Mn  0.85555915  0.12779899  0.13237703     1.20200
Mn1032     Mn  0.80883031  0.15685722  0.16213562     1.10100
Cl1033     Cl  0.81147459  0.12799360  0.13034538    -0.87100
C1034       C  0.85533618  0.20423091  0.13468994     0.95200
C1035       C  0.85221148  0.12409384  0.20888906     0.95000
N1036       N  0.85800594  0.58355271  0.63418661    -0.07300
N1037       N  0.87056431  0.56719100  0.64455697    -0.59400
N1038       N  0.84162233  0.60927065  0.58469625    -0.07000
N1039       N  0.84298589  0.60913828  0.56224967    -0.61600
N1040       N  0.85808477  0.62147976  0.59398395    -0.06600
N1041       N  0.87109858  0.63008071  0.57705634    -0.59400
N1042       N  0.84185566  0.57353668  0.62209096    -0.06300
N1043       N  0.84311851  0.55109471  0.62351774    -0.61900
C1044       C  0.86091091  0.54696729  0.63743191     0.94900
C1045       C  0.86123472  0.62205582  0.55723028     0.94700
N1046       N  0.77265278  0.62051467  0.59519068    -0.07500
N1047       N  0.75910860  0.63136011  0.58070155    -0.60000
N1048       N  0.78936291  0.57250486  0.62213802    -0.05600
N1049       N  0.78687581  0.55010361  0.62414645    -0.61300
N1050       N  0.77308747  0.58344511  0.63329012    -0.07500
N1051       N  0.75917482  0.56873877  0.64334655    -0.60300
N1052       N  0.78893416  0.60948058  0.58414412    -0.05300
N1053       N  0.78670351  0.61232412  0.56175026    -0.61300
Mn1054     Mn  0.81551270  0.59097694  0.60298872     1.18400
C1055       C  0.76809165  0.62621046  0.55992790     0.97000
C1056       C  0.76807175  0.54801732  0.63757778     0.97600
N1057       N  0.85596440  0.66313936  0.63357378    -0.07500
N1058       N  0.86934233  0.68022808  0.62602860    -0.63800
N1059       N  0.83845479  0.63650249  0.68159528    -0.06300
N1060       N  0.83862865  0.63617725  0.70407118    -0.64500
N1061       N  0.85589765  0.62492862  0.67288756    -0.07000
N1062       N  0.86835274  0.61626170  0.69015207    -0.64100
N1063       N  0.83808641  0.67228047  0.64415473    -0.05900
N1064       N  0.83880522  0.69477748  0.64408494    -0.64800
Mn1065     Mn  0.85878440  0.62333055  0.63363905     1.10700
C1066       C  0.85816968  0.69998813  0.63284807     0.98200
C1067       C  0.85715774  0.62364564  0.70958191     0.98300
N1068       N  0.77082730  0.62186717  0.66983494    -0.07100
N1069       N  0.75607303  0.61251738  0.68418679    -0.62400
N1070       N  0.78529324  0.67053681  0.64247154    -0.06400
N1071       N  0.78083650  0.69268802  0.64060085    -0.59200
N1072       N  0.76989461  0.65852549  0.63155890    -0.07700
N1073       N  0.75460064  0.67224331  0.62190308    -0.62000
N1074       N  0.78587296  0.63412327  0.68098865    -0.06700
N1075       N  0.78165342  0.63351361  0.70327256    -0.59200
Mn1076     Mn  0.77087564  0.62095546  0.63246030     1.20200
Mn1077     Mn  0.81202319  0.65358651  0.66242367     1.10100
Cl1078     Cl  0.81468621  0.62225681  0.63285588    -0.87100
C1079       C  0.76315534  0.61968717  0.70503197     0.95200
C1080       C  0.76167674  0.69357334  0.62759694     0.95000
N1081       N  0.12859331  0.08857678  0.77607789    -0.07300
N1082       N  0.14114624  0.07390690  0.76422170    -0.59400
N1083       N  0.07859713  0.11551074  0.78842389    -0.07000
N1084       N  0.05647752  0.11808151  0.78412776    -0.61600
N1085       N  0.09086219  0.12637162  0.77297991    -0.06600
N1086       N  0.07744991  0.13668498  0.75787729    -0.59400
N1087       N  0.11636721  0.07773957  0.79155521    -0.06300
N1088       N  0.12021953  0.05546249  0.79064419    -0.61900
C1089       C  0.13588515  0.05329934  0.77364943     0.94900
C1090       C  0.05598966  0.13154005  0.76508390     0.94700
N1091       N  0.08434678  0.12526745  0.85916083    -0.07500
N1092       N  0.06696410  0.13171026  0.87277118    -0.60000
N1093       N  0.11186583  0.07747227  0.84375102    -0.05600
N1094       N  0.11186934  0.05496832  0.84532081    -0.61300
N1095       N  0.12294350  0.08689411  0.86097560    -0.07500
N1096       N  0.13097179  0.07018616  0.87463810    -0.60300
N1097       N  0.07576371  0.11452439  0.84128939    -0.05300
N1098       N  0.05333173  0.11352877  0.84216811    -0.61300
Mn1099     Mn  0.09532538  0.09616609  0.81617583     1.18400
C1100       C  0.04763378  0.12419866  0.86168126     0.97000
C1101       C  0.12374517  0.05028582  0.86448861     0.97600
N1102       N  0.12815729  0.16333280  0.77494244    -0.07500
N1103       N  0.11830839  0.17775306  0.76050285    -0.63800
N1104       N  0.17584052  0.13699826  0.79350495    -0.06300
N1105       N  0.19827595  0.13464255  0.79182894    -0.64500
N1106       N  0.16549885  0.12570519  0.77718781    -0.07000
N1107       N  0.18063361  0.11526894  0.76398807    -0.64100
N1108       N  0.13857170  0.17453677  0.79129918    -0.05900
N1109       N  0.13619186  0.19686447  0.78838102    -0.64800
Mn1110     Mn  0.12828552  0.12596557  0.77443039     1.10700
C1111       C  0.12319194  0.19858060  0.76928812     0.98200
C1112       C  0.20100680  0.12079578  0.77348884     0.98300
N1113       N  0.16340736  0.12691180  0.86240008    -0.07100
N1114       N  0.17952377  0.11821335  0.87630170    -0.62400
N1115       N  0.13741721  0.17517728  0.84379948    -0.06400
N1116       N  0.13791672  0.19762580  0.84504144    -0.59200
N1117       N  0.12512863  0.16599652  0.86047646    -0.07700
N1118       N  0.11684414  0.18298550  0.87352364    -0.62000
N1119       N  0.17361721  0.13855054  0.84585660    -0.06700
N1120       N  0.19599443  0.13836161  0.84807961    -0.59200
Mn1121     Mn  0.12385510  0.12632280  0.86248954     1.20200
Mn1122     Mn  0.15653843  0.15653287  0.81861827     1.10100
Cl1123     Cl  0.12586789  0.12633617  0.81842638    -0.87100
C1124       C  0.19981196  0.12574210  0.86695906     0.95200
C1125       C  0.12513729  0.20268841  0.86346813     0.95000
N1126       N  0.62236301  0.35750399  0.09674159    -0.07300
N1127       N  0.63004074  0.37062548  0.07946931    -0.59400
N1128       N  0.57488338  0.34119629  0.12494550    -0.07000
N1129       N  0.55252230  0.34323117  0.12427498    -0.61600
N1130       N  0.58451130  0.35851598  0.13566644    -0.06600
N1131       N  0.56789947  0.37284606  0.14270145    -0.59400
N1132       N  0.61048367  0.34052221  0.08797308    -0.06300
N1133       N  0.60982883  0.34154188  0.06553296    -0.61900
C1134       C  0.62194513  0.36017129  0.05999980     0.94900
C1135       C  0.54797621  0.36283281  0.13525225     0.94700
N1136       N  0.58612099  0.27211912  0.13715822    -0.07500
N1137       N  0.57218304  0.25780469  0.14763504    -0.60000
N1138       N  0.61135535  0.28826960  0.08819110    -0.05600
N1139       N  0.61345716  0.28596350  0.06578200    -0.61300
N1140       N  0.62306344  0.27230465  0.09903205    -0.07500
N1141       N  0.63355228  0.25871818  0.08426462    -0.60300
N1142       N  0.57447087  0.28820558  0.12643335    -0.05300
N1143       N  0.55219219  0.28509763  0.12918103    -0.61300
Mn1144     Mn  0.59253230  0.31460910  0.10680119     1.18400
C1145       C  0.55105769  0.26616087  0.14273544     0.97000
C1146       C  0.62755785  0.26760074  0.06358698     0.97600
N1147       N  0.62571984  0.35809173  0.17575017    -0.07500
N1148       N  0.61884604  0.37236814  0.19233995    -0.63800
N1149       N  0.67277565  0.33958619  0.14854450    -0.06300
N1150       N  0.69523086  0.34008157  0.14853317    -0.64500
N1151       N  0.66379619  0.35684942  0.13685418    -0.07000
N1152       N  0.68097763  0.36963520  0.12860317    -0.64100
N1153       N  0.63668660  0.34063908  0.18530976    -0.05900
N1154       N  0.63764261  0.34256093  0.20771997    -0.64800
Mn1155     Mn  0.62414851  0.35946800  0.13620834     1.10700
C1156       C  0.62655260  0.36224601  0.21227085     0.98200
C1157       C  0.70059650  0.35868930  0.13617638     0.98300
N1158       N  0.66075988  0.27194267  0.13594609    -0.07100
N1159       N  0.67505605  0.25873068  0.12438796    -0.62400
N1160       N  0.63463994  0.28775680  0.18511460    -0.06400
N1161       N  0.63154379  0.28528553  0.20743224    -0.59200
N1162       N  0.62343364  0.27200477  0.17383763    -0.07700
N1163       N  0.61220532  0.25857781  0.18814224    -0.62000
N1164       N  0.67203857  0.28755162  0.14731833    -0.06700
N1165       N  0.69430462  0.28535575  0.14382167    -0.59200
Mn1166     Mn  0.62343511  0.27122368  0.13648032     1.20200
Mn1167     Mn  0.65417783  0.31386746  0.16689167     1.10100
Cl1168     Cl  0.62353288  0.31507585  0.13662871    -0.87100
C1169       C  0.69595282  0.26733584  0.12941178     0.95200
C1170       C  0.61732983  0.26710707  0.20904867     0.95000
N1171       N  0.08732998  0.27100979  0.63070041    -0.07300
N1172       N  0.07419906  0.25535754  0.64030585    -0.59400
N1173       N  0.11051079  0.28941687  0.58135310    -0.07000
N1174       N  0.11315232  0.28858111  0.55889261    -0.61600
N1175       N  0.12305003  0.27365357  0.59152200    -0.06600
N1176       N  0.13472803  0.26175148  0.57624297    -0.59400
N1177       N  0.07480347  0.28679261  0.62049876    -0.06300
N1178       N  0.05275959  0.28215250  0.62278099    -0.61900
C1179       C  0.05264270  0.26259387  0.63546967     0.94900
C1180       C  0.12845268  0.27134687  0.55596696     0.94700
N1181       N  0.11973149  0.35841217  0.59148840    -0.07500
N1182       N  0.12824417  0.37132011  0.57451640    -0.60000
N1183       N  0.07328352  0.33977592  0.62047407    -0.05600
N1184       N  0.05084772  0.34091005  0.62071071    -0.61300
N1185       N  0.08264505  0.35718028  0.63128559    -0.07500
N1186       N  0.06577255  0.37066313  0.63926078    -0.60300
N1187       N  0.10803579  0.34143628  0.58242376    -0.05300
N1188       N  0.10838742  0.34219621  0.55993695    -0.61300
Mn1189     Mn  0.09127466  0.31444865  0.60106695     1.18400
C1190       C  0.12090952  0.36070451  0.55491482     0.97000
C1191       C  0.04597322  0.36004951  0.63234856     0.97600
N1192       N  0.16195656  0.27377957  0.62662506    -0.07500
N1193       N  0.17636762  0.26081573  0.61485304    -0.63800
N1194       N  0.13760297  0.28810243  0.67684534    -0.06300
N1195       N  0.13620872  0.28548702  0.69923192    -0.64500
N1196       N  0.12630682  0.27197656  0.66621372    -0.07000
N1197       N  0.11672913  0.25796709  0.68120107    -0.64100
N1198       N  0.17304094  0.28985664  0.63753377    -0.05900
N1199       N  0.19524309  0.28824118  0.63353437    -0.64800
Mn1200     Mn  0.12469094  0.27164968  0.62881586     1.10700
C1201       C  0.19709865  0.27018042  0.61916340     0.98200
C1202       C  0.12306682  0.26672727  0.70170496     0.98300
N1203       N  0.12485503  0.35730488  0.67010424    -0.07100
N1204       N  0.11680049  0.36996942  0.68746376    -0.62400
N1205       N  0.17213930  0.34183370  0.64062850    -0.06400
N1206       N  0.19451917  0.34355297  0.64063350    -0.59200
N1207       N  0.16210757  0.35919329  0.63002552    -0.07700
N1208       N  0.17852714  0.37331360  0.62234379    -0.62000
N1209       N  0.13741459  0.34043385  0.67866258    -0.06700
N1210       N  0.13841031  0.34124885  0.70116084    -0.59200
Mn1211     Mn  0.12223206  0.35977983  0.63071279     1.20200
Mn1212     Mn  0.15520809  0.31501593  0.65858940     1.10100
Cl1213     Cl  0.12325665  0.31548712  0.62985353    -0.87100
C1214       C  0.12571733  0.35964661  0.70678499     0.95200
C1215       C  0.19875581  0.36305806  0.62931962     0.95000
N1216       N  0.12641248  0.39568537  0.09190966    -0.07300
N1217       N  0.11847302  0.38257389  0.07485546    -0.59400
N1218       N  0.17449328  0.41323797  0.11808634    -0.07000
N1219       N  0.19691683  0.41179457  0.11719643    -0.61600
N1220       N  0.16545680  0.39606511  0.12974425    -0.06600
N1221       N  0.18248765  0.38249956  0.13721660    -0.59400
N1222       N  0.13776815  0.41285812  0.08261149    -0.06300
N1223       N  0.13785651  0.41204523  0.06020523    -0.61900
C1224       C  0.12591711  0.39335496  0.05506103     0.94900
C1225       C  0.20209289  0.39273090  0.12906814     0.94700
N1226       N  0.16220981  0.48213431  0.12892798    -0.07500
N1227       N  0.17646050  0.49664671  0.13847604    -0.60000
N1228       N  0.13535549  0.46461941  0.08150331    -0.05600
N1229       N  0.13144636  0.46588264  0.05924250    -0.61300
N1230       N  0.12372374  0.48046327  0.09247828    -0.07500
N1231       N  0.11148680  0.49289675  0.07800260    -0.60300
N1232       N  0.17361626  0.46607412  0.11799836    -0.05300
N1233       N  0.19593381  0.46931799  0.11962711    -0.61300
Mn1234     Mn  0.15557799  0.43915999  0.09999515     1.18400
C1235       C  0.19743449  0.48834266  0.13269977     0.97000
C1236       C  0.11630697  0.48345848  0.05734888     0.97600
N1237       N  0.12572221  0.39644623  0.17152476    -0.07500
N1238       N  0.13321942  0.38272348  0.18847906    -0.63800
N1239       N  0.07722739  0.41291769  0.14582534    -0.06300
N1240       N  0.05481213  0.41131212  0.14712738    -0.64500
N1241       N  0.08642209  0.39590969  0.13401143    -0.07000
N1242       N  0.06952979  0.38232853  0.12680279    -0.64100
N1243       N  0.11473164  0.41398659  0.18081015    -0.05900
N1244       N  0.11435002  0.41268519  0.20326470    -0.64800
Mn1245     Mn  0.12597247  0.39426509  0.13177730     1.10700
C1246       C  0.12577614  0.39331801  0.20824541     0.98200
C1247       C  0.04985287  0.39234397  0.13532971     0.98300
N1248       N  0.08744072  0.48104785  0.13070103    -0.07100
N1249       N  0.07255236  0.49490372  0.12068394    -0.62400
N1250       N  0.11484631  0.46710634  0.17935217    -0.06400
N1251       N  0.11586844  0.47208103  0.20143063    -0.59200
N1252       N  0.12542138  0.48275607  0.16711254    -0.07700
N1253       N  0.13401238  0.49860721  0.18049678    -0.62000
N1254       N  0.07680718  0.46543887  0.14292880    -0.06700
N1255       N  0.05440528  0.46834872  0.14168883    -0.59200
Mn1256     Mn  0.12474036  0.48239651  0.12975670     1.20200
Mn1257     Mn  0.09582515  0.43978551  0.16246865     1.10100
Cl1258     Cl  0.12557697  0.43862188  0.13109185    -0.87100
C1259       C  0.05199174  0.48670413  0.12760339     0.95200
C1260       C  0.12820475  0.49168232  0.20189576     0.95000
N1261       N  0.41229749  0.37837724  0.24099221    -0.07300
N1262       N  0.42678993  0.36729120  0.25444992    -0.59400
N1263       N  0.38694546  0.42806716  0.22587780    -0.07000
N1264       N  0.38564446  0.45040626  0.22917094    -0.61600
N1265       N  0.37572571  0.41696699  0.24193424    -0.06600
N1266       N  0.36622084  0.43146616  0.25647013    -0.59400
N1267       N  0.42340933  0.38976317  0.22506938    -0.06300
N1268       N  0.44571290  0.38685665  0.22728156    -0.61900
C1269       C  0.44759046  0.37267259  0.24557719     0.94900
C1270       C  0.37252490  0.45225197  0.24824058     0.94700
N1271       N  0.37638455  0.41963780  0.15575065    -0.07500
N1272       N  0.36915152  0.43677056  0.14215230    -0.60000
N1273       N  0.42345076  0.39165904  0.17289849    -0.05600
N1274       N  0.44584306  0.39217731  0.17149090    -0.61300
N1275       N  0.41425029  0.38053245  0.15562438    -0.07500
N1276       N  0.43119038  0.37319037  0.14187475    -0.60300
N1277       N  0.38757331  0.42858959  0.17314870    -0.05300
N1278       N  0.38825778  0.45102130  0.17190264    -0.61300
Mn1279     Mn  0.40543122  0.40970534  0.19918374     1.18400
C1280       C  0.37684032  0.45633780  0.15268457     0.97000
C1281       C  0.45089145  0.38077108  0.15226961     0.97600
N1282       N  0.33771442  0.38114753  0.24179877    -0.07500
N1283       N  0.32413087  0.39274006  0.25566494    -0.63800
N1284       N  0.36209335  0.33169562  0.22521487    -0.06300
N1285       N  0.36500584  0.30927208  0.22674683    -0.64500
N1286       N  0.37405262  0.34222179  0.24094437    -0.07000
N1287       N  0.38549218  0.32724346  0.25356256    -0.64100
N1288       N  0.32578732  0.37090644  0.22585005    -0.05900
N1289       N  0.30366862  0.37516616  0.22861740    -0.64800
Mn1290     Mn  0.37493478  0.37955825  0.24230883     1.10700
C1291       C  0.30291326  0.38893520  0.24727119     0.98200
C1292       C  0.37984188  0.30677139  0.24437529     0.98300
N1293       N  0.37277806  0.34050499  0.15593726    -0.07100
N1294       N  0.38042744  0.32326866  0.14279796    -0.62400
N1295       N  0.32544517  0.36940761  0.17278116    -0.06400
N1296       N  0.30312673  0.36851094  0.17048155    -0.59200
N1297       N  0.33527618  0.37975608  0.15517417    -0.07700
N1298       N  0.31894573  0.38616185  0.14034049    -0.62000
N1299       N  0.36068037  0.33170827  0.17296808    -0.06700
N1300       N  0.35979290  0.30926550  0.17189781    -0.59200
Mn1301     Mn  0.37474546  0.38007754  0.15391567     1.20200
Mn1302     Mn  0.34314157  0.35081731  0.19924213     1.10100
Cl1303     Cl  0.37452961  0.38005005  0.19838512    -0.87100
C1304       C  0.37200611  0.30378306  0.15319231     0.95200
C1305       C  0.29888550  0.37890240  0.15036899     0.95000
N1306       N  0.66533257  0.62488038  0.40435261    -0.07300
N1307       N  0.68264681  0.63273040  0.39136498    -0.59400
N1308       N  0.63701748  0.57793071  0.42222708    -0.07000
N1309       N  0.63628294  0.55550469  0.42125860    -0.61600
N1310       N  0.62576027  0.58759373  0.40507667    -0.06600
N1311       N  0.61692587  0.57113402  0.39200619    -0.59400
N1312       N  0.67426039  0.61314808  0.42159997    -0.06300
N1313       N  0.69671090  0.61271258  0.42089478    -0.61900
C1314       C  0.70222468  0.62483665  0.40218890     0.94900
C1315       C  0.62383288  0.55113750  0.40251091     0.94700
N1316       N  0.62619749  0.59020342  0.49096660    -0.07500
N1317       N  0.61657970  0.57627939  0.50593660    -0.60000
N1318       N  0.67473183  0.61499685  0.47375066    -0.05600
N1319       N  0.69714067  0.61686175  0.47606800    -0.61300
N1320       N  0.66393605  0.62693013  0.48949543    -0.07500
N1321       N  0.67871167  0.63730335  0.50291674    -0.60300
N1322       N  0.63687248  0.57848127  0.47500570    -0.05300
N1323       N  0.63494054  0.55625322  0.47876020    -0.61300
Mn1324     Mn  0.65585497  0.59583594  0.44808283     1.18400
C1325       C  0.62194136  0.55515506  0.49798671     0.97000
C1326       C  0.69937931  0.63105247  0.49419958     0.97600
N1327       N  0.58558836  0.62825515  0.40503610    -0.07500
N1328       N  0.56826366  0.62004656  0.39245862    -0.63800
N1329       N  0.61355196  0.67541854  0.42145870    -0.06300
N1330       N  0.61377385  0.69780048  0.42048683    -0.64500
N1331       N  0.62476993  0.66609350  0.40415447    -0.07000
N1332       N  0.63290041  0.68292113  0.39077600    -0.64100
N1333       N  0.57673007  0.63985088  0.42234083    -0.05900
N1334       N  0.55425869  0.63998026  0.42195342    -0.64800
Mn1335     Mn  0.62542567  0.62675262  0.40274001     1.10700
C1336       C  0.54869016  0.62771809  0.40345739     0.98200
C1337       C  0.62578106  0.70268057  0.40155041     0.98300
N1338       N  0.62683474  0.66482091  0.48953077    -0.07100
N1339       N  0.63709149  0.67923747  0.50339520    -0.62400
N1340       N  0.57775103  0.63909763  0.47487370    -0.06400
N1341       N  0.55545486  0.63729678  0.47816043    -0.59200
N1342       N  0.58912153  0.62789220  0.49079646    -0.07700
N1343       N  0.57484938  0.61800714  0.50528802    -0.62000
N1344       N  0.61531952  0.67600145  0.47370639    -0.06700
N1345       N  0.61733385  0.69834845  0.47642806    -0.59200
Mn1346     Mn  0.62654776  0.62750483  0.49097273     1.20200
Mn1347     Mn  0.59563151  0.65776708  0.44803691     1.10100
Cl1348     Cl  0.62587340  0.62695672  0.44695684    -0.87100
C1349       C  0.63121858  0.70010944  0.49488019     0.95200
C1350       C  0.55389997  0.62384561  0.49706442     0.95000
N1351       N  0.52124463  0.33752094  0.38344052    -0.07300
N1352       N  0.50866194  0.32271069  0.37214085    -0.59400
N1353       N  0.53473774  0.36452922  0.43270509    -0.07000
N1354       N  0.53255639  0.36878673  0.45484283    -0.61600
N1355       N  0.51856630  0.37499698  0.42099766    -0.06600
N1356       N  0.50510282  0.38685231  0.43476292    -0.59400
N1357       N  0.53732438  0.32690016  0.39509098    -0.06300
N1358       N  0.53607221  0.30451545  0.39207686    -0.61900
C1359       C  0.51812031  0.30214376  0.37764205     0.94900
C1360       C  0.51404034  0.38286625  0.45580765     0.94700
N1361       N  0.60416985  0.37677900  0.42493357    -0.07500
N1362       N  0.61724176  0.38450842  0.44209323    -0.60000
N1363       N  0.58931257  0.32895053  0.39733555    -0.05600
N1364       N  0.59082962  0.30654323  0.39708639    -0.61300
N1365       N  0.60602007  0.33869841  0.38561622    -0.07500
N1366       N  0.61941303  0.32205063  0.37690491    -0.60300
N1367       N  0.58717198  0.36494202  0.43393983    -0.05300
N1368       N  0.58815936  0.36429838  0.45640994    -0.61300
Mn1369     Mn  0.56215465  0.34614590  0.41505369     1.18400
C1370       C  0.60679048  0.37642268  0.46175533     0.97000
C1371       C  0.60946773  0.30197602  0.38447834     0.97600
N1372       N  0.51649901  0.41174867  0.38392206    -0.07500
N1373       N  0.50060956  0.42449498  0.39368164    -0.63800
N1374       N  0.53529831  0.38727871  0.33553688    -0.06300
N1375       N  0.53325092  0.38439623  0.31317431    -0.64500
N1376       N  0.52016549  0.37488455  0.34661931    -0.07000
N1377       N  0.50752807  0.36320608  0.33222199    -0.64100
N1378       N  0.53156850  0.42452700  0.37322833    -0.05900
N1379       N  0.52605900  0.44650128  0.37527717    -0.64800
Mn1380     Mn  0.51835421  0.37467492  0.38373764     1.10700
C1381       C  0.50673889  0.44616840  0.38834748     0.98200
C1382       C  0.51597840  0.36907909  0.31141639     0.98300
N1383       N  0.60509368  0.38060315  0.34568357    -0.07100
N1384       N  0.61932334  0.37377242  0.32894962    -0.62400
N1385       N  0.58477503  0.42699341  0.37347796    -0.06400
N1386       N  0.58523041  0.44947787  0.37367929    -0.59200
N1387       N  0.60232297  0.41791254  0.38465979    -0.07700
N1388       N  0.61515822  0.43491922  0.39276239    -0.62000
N1389       N  0.58772214  0.39177979  0.33627722    -0.06700
N1390       N  0.58964682  0.39287257  0.31387007    -0.59200
Mn1391     Mn  0.60616190  0.37851617  0.38519914     1.20200
Mn1392     Mn  0.55988726  0.40803525  0.35439717     1.10100
Cl1393     Cl  0.56194301  0.37691899  0.38458700    -0.87100
C1394       C  0.60925204  0.38173902  0.30909810     0.95200
C1395       C  0.60407501  0.45457737  0.38567159     0.95000
N1396       N  0.35755133  0.09247378  0.63568728    -0.07300
N1397       N  0.37218315  0.07573666  0.64186128    -0.59400
N1398       N  0.33939012  0.11797302  0.58774994    -0.07000
N1399       N  0.34028565  0.11785206  0.56522925    -0.61600
N1400       N  0.35638354  0.12989484  0.59657456    -0.06600
N1401       N  0.36918503  0.13822803  0.57946174    -0.59400
N1402       N  0.33976746  0.08300848  0.62561529    -0.06300
N1403       N  0.34167563  0.06068473  0.62470641    -0.61900
C1404       C  0.36174084  0.05593511  0.63469205     0.94900
C1405       C  0.35878502  0.13041827  0.55993058     0.94700
N1406       N  0.27111217  0.13044645  0.59973039    -0.07500
N1407       N  0.25585807  0.13902278  0.58553321    -0.60000
N1408       N  0.28682457  0.08319335  0.62837879    -0.05600
N1409       N  0.28253328  0.06111219  0.63131454    -0.61300
N1410       N  0.27148346  0.09563728  0.63923578    -0.07500
N1411       N  0.25655387  0.08252380  0.64991369    -0.60300
N1412       N  0.28641770  0.11826303  0.58860049    -0.05300
N1413       N  0.28185694  0.11802767  0.56640325    -0.61300
Mn1414     Mn  0.31318573  0.10033323  0.60738879     1.18400
C1415       C  0.26279748  0.13130665  0.56479141     0.97000
C1416       C  0.26369366  0.06098272  0.64510082     0.97600
N1417       N  0.35740992  0.17183673  0.63528880    -0.07500
N1418       N  0.37046671  0.18860333  0.62649893    -0.63800
N1419       N  0.34045585  0.14644165  0.68435619    -0.06300
N1420       N  0.34075809  0.14577600  0.70687578    -0.64500
N1421       N  0.35709425  0.13389260  0.67536506    -0.07000
N1422       N  0.36907580  0.12424544  0.69249533    -0.64100
N1423       N  0.34014697  0.18144811  0.64634626    -0.05900
N1424       N  0.34090323  0.20382646  0.64553122    -0.64800
Mn1425     Mn  0.35899445  0.13204508  0.63577128     1.10700
C1426       C  0.35965014  0.20859660  0.63324887     0.98200
C1427       C  0.35850377  0.13200527  0.71216794     0.98300
N1428       N  0.27257073  0.13455197  0.67367434    -0.07100
N1429       N  0.26009737  0.12290870  0.68835179    -0.62400
N1430       N  0.28776903  0.18180248  0.64473672    -0.06400
N1431       N  0.28495154  0.20392394  0.64045213    -0.59200
N1432       N  0.27205511  0.16988132  0.63418343    -0.07700
N1433       N  0.25822625  0.18345022  0.62243577    -0.62000
N1434       N  0.28838228  0.14612103  0.68438863    -0.06700
N1435       N  0.28703931  0.14277237  0.70676896    -0.59200
Mn1436     Mn  0.27119909  0.13276901  0.63673921     1.20200
Mn1437     Mn  0.31421898  0.16431655  0.66519976     1.10100
Cl1438     Cl  0.31496373  0.13234176  0.63618736    -0.87100
C1439       C  0.26931617  0.12813485  0.70889709     0.95200
C1440       C  0.26646257  0.20467307  0.62641832     0.95000
N1441       N  0.27114066  0.62815791  0.09597914    -0.07300
N1442       N  0.25577851  0.63704662  0.08195507    -0.59400
N1443       N  0.28872864  0.57892946  0.12023719    -0.07000
N1444       N  0.28610328  0.55643341  0.12101706    -0.61600
N1445       N  0.27240966  0.58933791  0.13176550    -0.06600
N1446       N  0.25841562  0.57429406  0.14094358    -0.59400
N1447       N  0.28750369  0.61784387  0.08439674    -0.06300
N1448       N  0.28357713  0.61937164  0.06211374    -0.61900
C1449       C  0.26386291  0.63177463  0.06085615     0.94900
C1450       C  0.26718869  0.55384286  0.13426559     0.94700
N1451       N  0.35758558  0.59038862  0.13307344    -0.07500
N1452       N  0.37106697  0.57364147  0.14137673    -0.60000
N1453       N  0.34029935  0.61867880  0.08553865    -0.05600
N1454       N  0.34199390  0.61899852  0.06312920    -0.61300
N1455       N  0.35690101  0.63023660  0.09545337    -0.07500
N1456       N  0.37035018  0.63897048  0.07890124    -0.60300
N1457       N  0.34136199  0.58100313  0.12055967    -0.05300
N1458       N  0.34337954  0.55862050  0.11993303    -0.61300
Mn1459     Mn  0.31459654  0.59897135  0.10247694     1.18400
C1460       C  0.36179225  0.55382816  0.13280755     0.97000
C1461       C  0.36059745  0.63152498  0.05876811     0.97600
N1462       N  0.26999609  0.62457289  0.17053276    -0.07500
N1463       N  0.25618115  0.61277885  0.18396711    -0.63800
N1464       N  0.28384019  0.67529546  0.14688617    -0.06300
N1465       N  0.27956837  0.69753911  0.14595919    -0.64500
N1466       N  0.26876834  0.66393287  0.13486496    -0.07000
N1467       N  0.25390201  0.67815650  0.12531605    -0.64100
N1468       N  0.28482645  0.63605041  0.18272760    -0.05900
N1469       N  0.28134013  0.63247110  0.20485820    -0.64800
Mn1470     Mn  0.26991129  0.62654159  0.13327553     1.10700
C1471       C  0.26350734  0.61770453  0.20538244     0.98200
C1472       C  0.26097348  0.69908877  0.13220244     0.98300
N1473       N  0.35426164  0.66897490  0.13744521    -0.07100
N1474       N  0.36704619  0.68622124  0.12955017    -0.62400
N1475       N  0.33712075  0.63980411  0.18433963    -0.06400
N1476       N  0.33767208  0.63993262  0.20680803    -0.59200
N1477       N  0.35538681  0.62975327  0.17540606    -0.07700
N1478       N  0.36901936  0.62294509  0.19274640    -0.62000
N1479       N  0.33667483  0.67759286  0.14890315    -0.06700
N1480       N  0.33713830  0.70012671  0.14920531    -0.59200
Mn1481     Mn  0.35781126  0.62983385  0.13540854     1.20200
Mn1482     Mn  0.31061820  0.65740998  0.16589550     1.10100
Cl1483     Cl  0.31367270  0.62822639  0.13424875    -0.87100
C1484       C  0.35599665  0.70562968  0.13715047     0.95200
C1485       C  0.35737313  0.62946689  0.21236077     0.95000
N1486       N  0.47525122  0.12850738  0.09792830    -0.07300
N1487       N  0.48990524  0.11903435  0.08352998    -0.59400
N1488       N  0.45986850  0.17700432  0.12469983    -0.07000
N1489       N  0.46310754  0.19923689  0.12744622    -0.61600
N1490       N  0.47545520  0.16513361  0.13586690    -0.06600
N1491       N  0.48954854  0.17887883  0.14665479    -0.59400
N1492       N  0.45952724  0.14021777  0.08678791    -0.06300
N1493       N  0.46317771  0.13920082  0.06445628    -0.61900
C1494       C  0.48210924  0.12575513  0.06270304     0.94900
C1495       C  0.48162194  0.20012747  0.14139629     0.94700
N1496       N  0.39015105  0.16892670  0.13528685    -0.07500
N1497       N  0.37712059  0.18608406  0.14348854    -0.60000
N1498       N  0.40665286  0.14201253  0.08697547    -0.05600
N1499       N  0.40511733  0.14259076  0.06451820    -0.61300
N1500       N  0.38946934  0.13073949  0.09644483    -0.07500
N1501       N  0.37579255  0.12327339  0.07967944    -0.60300
N1502       N  0.40733299  0.17795524  0.12367209    -0.05300
N1503       N  0.40649486  0.20041674  0.12360374    -0.61300
Mn1504     Mn  0.43329580  0.15946246  0.10529466     1.18400
C1505       C  0.38779025  0.20573356  0.13586800     0.97000
C1506       C  0.38598480  0.13097984  0.05976467     0.97600
N1507       N  0.47569919  0.12728121  0.17243733    -0.07500
N1508       N  0.48973880  0.13776287  0.18648874    -0.63800
N1509       N  0.45961128  0.07895105  0.14575335    -0.06300
N1510       N  0.46291172  0.05665132  0.14296568    -0.64500
N1511       N  0.47520575  0.09059287  0.13449709    -0.07000
N1512       N  0.48934428  0.07667580  0.12365833    -0.64100
N1513       N  0.46010225  0.11593956  0.18396344    -0.05900
N1514       N  0.46321237  0.11831776  0.20628613    -0.64800
Mn1515     Mn  0.47606367  0.12784183  0.13518816     1.10700
C1516       C  0.48167065  0.13224188  0.20755706     0.98200
C1517       C  0.48142757  0.05553956  0.12882959     0.98300
N1518       N  0.38925548  0.08951934  0.13718159    -0.07100
N1519       N  0.37495276  0.07301168  0.13040457    -0.62400
N1520       N  0.40749368  0.11569277  0.18461545    -0.06400
N1521       N  0.40666340  0.11547999  0.20709365    -0.59200
N1522       N  0.39041095  0.12767875  0.17565942    -0.07700
N1523       N  0.37749436  0.13592865  0.19280709    -0.62000
N1524       N  0.40663651  0.07974991  0.14803684    -0.06700
N1525       N  0.40466774  0.05738616  0.14898029    -0.59200
Mn1526     Mn  0.38805242  0.12924655  0.13614800     1.20200
Mn1527     Mn  0.43344008  0.09728310  0.16578484     1.10100
Cl1528     Cl  0.43223958  0.12840390  0.13556840    -0.87100
C1529       C  0.38504376  0.05297723  0.13807755     0.95200
C1530       C  0.38807652  0.12800619  0.21241776     0.95000
N1531       N  0.33402834  0.15175828  0.38540693    -0.07300
N1532       N  0.31692112  0.13806890  0.39224241    -0.59400
N1533       N  0.36046053  0.16633670  0.33705493    -0.07000
N1534       N  0.35962561  0.16448827  0.31469893    -0.61600
N1535       N  0.37196744  0.14926613  0.34662085    -0.06600
N1536       N  0.37931937  0.13524902  0.32997056    -0.59400
N1537       N  0.32505844  0.16941160  0.37426683    -0.06300
N1538       N  0.30264257  0.16826647  0.37333063    -0.61900
C1539       C  0.29733961  0.14880221  0.38433996     0.94900
C1540       C  0.37128567  0.14523312  0.31005224     0.94700
N1541       N  0.37661523  0.23383126  0.34441128    -0.07500
N1542       N  0.38774185  0.24619103  0.32913667    -0.60000
N1543       N  0.32759381  0.22227931  0.37266362    -0.05600
N1544       N  0.30551257  0.22644292  0.37547361    -0.61300
N1545       N  0.33987037  0.23820377  0.38247381    -0.07500
N1546       N  0.32650423  0.25349716  0.39250413    -0.60300
N1547       N  0.36402565  0.21837363  0.33427497    -0.05300
N1548       N  0.36611479  0.21994453  0.31173627    -0.61300
Mn1549     Mn  0.34400189  0.19407884  0.35449309     1.18400
C1550       C  0.38118794  0.23727282  0.30881647     0.97000
C1551       C  0.30514425  0.24580522  0.38816467     0.97600
N1552       N  0.41334427  0.14933466  0.38692357    -0.07500
N1553       N  0.42989007  0.13535913  0.37909137    -0.63800
N1554       N  0.38666896  0.16934721  0.43432511    -0.06300
N1555       N  0.38705590  0.16855119  0.45683929    -0.64500
N1556       N  0.37507509  0.15211249  0.42561211    -0.07000
N1557       N  0.36723568  0.13917204  0.44290022    -0.64100
N1558       N  0.42310607  0.16623374  0.39816141    -0.05900
N1559       N  0.44550699  0.16422550  0.39850280    -0.64800
Mn1560     Mn  0.37365151  0.14890152  0.38617396     1.10700
C1561       C  0.44990144  0.14509213  0.38669746     0.98200
C1562       C  0.37495306  0.14983339  0.46236757     0.98300
N1563       N  0.37710894  0.23813899  0.41874008    -0.07100
N1564       N  0.36639285  0.25295245  0.43205287    -0.62400
N1565       N  0.42501096  0.21825397  0.39350746    -0.06400
N1566       N  0.44742517  0.21933301  0.39056046    -0.59200
N1567       N  0.41455484  0.23389098  0.38102230    -0.07700
N1568       N  0.42959170  0.24598140  0.36919505    -0.62000
N1569       N  0.38734409  0.22223029  0.43104480    -0.06700
N1570       N  0.38408051  0.22594773  0.45312797    -0.59200
Mn1571     Mn  0.37717641  0.23686692  0.38155029     1.20200
Mn1572     Mn  0.40569044  0.19403527  0.41460280     1.10100
Cl1573     Cl  0.37511132  0.19317632  0.38423221    -0.87100
C1574       C  0.37085247  0.24511669  0.45346657     0.95200
C1575       C  0.45005217  0.23655498  0.37513769     0.95000
N1576       N  0.58386672  0.77624802  0.63569448    -0.07300
N1577       N  0.56958656  0.76358050  0.64768241    -0.59400
N1578       N  0.60910141  0.78940718  0.58561635    -0.07000
N1579       N  0.61173644  0.78662081  0.56330292    -0.61600
N1580       N  0.62010284  0.77338016  0.59706129    -0.06600
N1581       N  0.63069189  0.75933292  0.58289488    -0.59400
N1582       N  0.57273613  0.79227063  0.62435683    -0.06300
N1583       N  0.55045619  0.79077518  0.62829565    -0.61900
C1584       C  0.54881293  0.77289149  0.64318508     0.94900
C1585       C  0.62537311  0.76784020  0.56191968     0.94700
N1586       N  0.62371274  0.85791436  0.59252755    -0.07500
N1587       N  0.63354442  0.86947527  0.57528252    -0.60000
N1588       N  0.57519523  0.84469953  0.62083710    -0.05600
N1589       N  0.55291040  0.84742369  0.62046451    -0.61300
N1590       N  0.58550671  0.86161266  0.63151543    -0.07500
N1591       N  0.56943927  0.87641654  0.63884702    -0.60300
N1592       N  0.61074162  0.84171443  0.58377127    -0.05300
N1593       N  0.61113939  0.84198457  0.56124345    -0.61300
Mn1594     Mn  0.59160556  0.81702775  0.60341266     1.18400
C1595       C  0.62529098  0.85919463  0.55584471     0.97000
C1596       C  0.54910372  0.86707871  0.63159428     0.97600
N1597       N  0.65815520  0.77150068  0.63303825    -0.07500
N1598       N  0.67114078  0.75610984  0.62271944    -0.63800
N1599       N  0.63447652  0.78970471  0.68221351    -0.06300
N1600       N  0.63300739  0.78699058  0.70466049    -0.64500
N1601       N  0.62201746  0.77447765  0.67159697    -0.07000
N1602       N  0.61156888  0.76108180  0.68649496    -0.64100
N1603       N  0.67076934  0.78667365  0.64356917    -0.05900
N1604       N  0.69279352  0.78187973  0.64075145    -0.64800
Mn1605     Mn  0.62094635  0.77319367  0.63432459     1.10700
C1606       C  0.69273970  0.76284278  0.62744882     0.98200
C1607       C  0.61847902  0.76915821  0.70705654     0.98300
N1608       N  0.62664569  0.85965013  0.67157951    -0.07100
N1609       N  0.61875746  0.87333818  0.68825921    -0.62400
N1610       N  0.67318199  0.83929244  0.64363875    -0.06400
N1611       N  0.69561416  0.83917864  0.64316368    -0.59200
N1612       N  0.66445952  0.85683911  0.63219025    -0.07700
N1613       N  0.68174722  0.86915233  0.62353520    -0.62000
N1614       N  0.63782173  0.84230485  0.68113881    -0.06700
N1615       N  0.63796333  0.84379774  0.70361736    -0.59200
Mn1616     Mn  0.62514327  0.86084590  0.63194896     1.20200
Mn1617     Mn  0.65433852  0.81455519  0.66287001     1.10100
Cl1618     Cl  0.62300192  0.81694020  0.63318074    -0.87100
C1619       C  0.62614771  0.86304828  0.70825296     0.95200
C1620       C  0.70115138  0.85767444  0.63072606     0.95000
N1621       N  0.22982001  0.35054434  0.38627826    -0.07300
N1622       N  0.24463485  0.33633543  0.39606650    -0.59400
N1623       N  0.21403180  0.37733205  0.33771787    -0.07000
N1624       N  0.21750721  0.38055688  0.31556454    -0.61600
N1625       N  0.22865521  0.38924213  0.34976699    -0.06600
N1626       N  0.24243430  0.40088471  0.33614183    -0.59400
N1627       N  0.21477881  0.33904593  0.37437436    -0.06300
N1628       N  0.21886637  0.31688188  0.37563658    -0.61900
C1629       C  0.23746241  0.31536773  0.38924038     0.94900
C1630       C  0.23515880  0.39549227  0.31481214     0.94700
N1631       N  0.14351100  0.38178157  0.34312435    -0.07500
N1632       N  0.12966256  0.38722337  0.32557687    -0.60000
N1633       N  0.16265292  0.33502805  0.37097318    -0.05600
N1634       N  0.16252888  0.31249325  0.37042788    -0.61300
N1635       N  0.14436413  0.34333546  0.38147421    -0.07500
N1636       N  0.13130254  0.32582355  0.38833371    -0.60300
N1637       N  0.16209423  0.37192449  0.33474408    -0.05300
N1638       N  0.16150931  0.37043645  0.31233673    -0.61300
Mn1639     Mn  0.18844399  0.35571861  0.35434044     1.18400
C1640       C  0.14142476  0.37989983  0.30637818     0.97000
C1641       C  0.14306986  0.30658514  0.38123904     0.97600
N1642       N  0.22475984  0.42552321  0.38804143    -0.07500
N1643       N  0.23825431  0.44122227  0.37895860    -0.63800
N1644       N  0.20870394  0.39654509  0.43544756    -0.06300
N1645       N  0.21114664  0.39329649  0.45780277    -0.64500
N1646       N  0.22554318  0.38657301  0.42421618    -0.07000
N1647       N  0.23962202  0.37605846  0.43843989    -0.64100
N1648       N  0.20774874  0.43530473  0.39915683    -0.05900
N1649       N  0.20927222  0.45784461  0.39813254    -0.64800
Mn1650     Mn  0.22807168  0.38806221  0.38707977     1.10700
C1651       C  0.22829724  0.46128452  0.38535263     0.98200
C1652       C  0.23038249  0.38013922  0.45930499     0.98300
N1653       N  0.14030638  0.38286694  0.42224696    -0.07100
N1654       N  0.12701843  0.37304457  0.43817991    -0.62400
N1655       N  0.15534176  0.43227000  0.39714278    -0.06400
N1656       N  0.15318768  0.45468826  0.39659380    -0.59200
N1657       N  0.14016663  0.42215413  0.38386422    -0.07700
N1658       N  0.12745172  0.43836120  0.37356979    -0.62000
N1659       N  0.15587875  0.39529160  0.43274121    -0.06700
N1660       N  0.15349099  0.39473614  0.45509485    -0.59200
Mn1661     Mn  0.14037952  0.38259542  0.38266152     1.20200
Mn1662     Mn  0.18177670  0.41507818  0.41646329     1.10100
Cl1663     Cl  0.18440348  0.38537569  0.38512333    -0.87100
C1664       C  0.13560731  0.38096961  0.45854980     0.95200
C1665       C  0.13584852  0.45853983  0.38206910     0.95000
N1666       N  0.58154189  0.62920509  0.86678394    -0.07300
N1667       N  0.56496946  0.63800809  0.88012916    -0.59400
N1668       N  0.60727101  0.58041506  0.84988753    -0.07000
N1669       N  0.60633023  0.55799480  0.85136606    -0.61600
N1670       N  0.61937665  0.58941987  0.86661482    -0.06600
N1671       N  0.62732827  0.57233203  0.87986310    -0.59400
N1672       N  0.57183198  0.61765246  0.85005764    -0.06300
N1673       N  0.54937886  0.61790080  0.85167181    -0.61900
C1674       C  0.54496510  0.63043722  0.87036465     0.94900
C1675       C  0.61874494  0.55282303  0.86994761     0.94700
N1676       N  0.62026700  0.59132979  0.78127968    -0.07500
N1677       N  0.63012481  0.57645957  0.76733823    -0.60000
N1678       N  0.57228249  0.61902133  0.79760222    -0.05600
N1679       N  0.55001855  0.62204321  0.79534086    -0.61300
N1680       N  0.58348354  0.62977464  0.78130071    -0.07500
N1681       N  0.56906202  0.64051368  0.76749483    -0.60300
N1682       N  0.60863110  0.58060667  0.79733005    -0.05300
N1683       N  0.61009465  0.55820241  0.79464787    -0.61300
Mn1684     Mn  0.58984298  0.59927181  0.82370099     1.18400
C1685       C  0.62366373  0.55587155  0.77596644     0.97000
C1686       C  0.54825628  0.63550991  0.77653124     0.97600
N1687       N  0.66085779  0.62883218  0.86559775    -0.07500
N1688       N  0.67776328  0.61993299  0.87844970    -0.63800
N1689       N  0.63473933  0.67755297  0.84877487    -0.06300
N1690       N  0.63477548  0.70003820  0.84959024    -0.64500
N1691       N  0.62277050  0.66848021  0.86573911    -0.07000
N1692       N  0.61400951  0.68551293  0.87840709    -0.64100
N1693       N  0.67018478  0.64010322  0.84828404    -0.05900
N1694       N  0.69261245  0.63928324  0.84885802    -0.64800
Mn1695     Mn  0.62121121  0.62900424  0.86796102     1.10700
C1696       C  0.69755906  0.62679562  0.86753385     0.98200
C1697       C  0.62192060  0.70513256  0.86795738     0.98300
N1698       N  0.62122557  0.66617139  0.78059381    -0.07100
N1699       N  0.61060770  0.68067383  0.76679322    -0.62400
N1700       N  0.66985311  0.63942813  0.79562841    -0.06400
N1701       N  0.69211882  0.63790748  0.79170713    -0.59200
N1702       N  0.65835593  0.62816229  0.78005860    -0.07700
N1703       N  0.67250615  0.61852753  0.76521444    -0.62000
N1704       N  0.63276082  0.67726988  0.79624964    -0.06700
N1705       N  0.63044947  0.69963332  0.79342968    -0.59200
Mn1706     Mn  0.62086522  0.62878303  0.77995085     1.20200
Mn1707     Mn  0.65211760  0.65878420  0.82230931     1.10100
Cl1708     Cl  0.62107578  0.62892177  0.82387832    -0.87100
C1709       C  0.61633205  0.70147525  0.77512629     0.95200
C1710       C  0.69352692  0.62465737  0.77275972     0.95000
N1711       N  0.33607190  0.38705972  0.52823818    -0.07300
N1712       N  0.32138214  0.37679074  0.51457339    -0.59400
N1713       N  0.36300043  0.43468313  0.54633159    -0.07000
N1714       N  0.36572273  0.45707300  0.54451291    -0.61600
N1715       N  0.37406457  0.42397787  0.52989519    -0.06600
N1716       N  0.38475251  0.43876586  0.51657467    -0.59400
N1717       N  0.32513662  0.39791669  0.54466177    -0.06300
N1718       N  0.30279502  0.39545339  0.54258015    -0.61900
C1719       C  0.30067348  0.38216584  0.52380949     0.94900
C1720       C  0.37960887  0.45934182  0.52600680     0.94700
N1721       N  0.37267510  0.42197806  0.61545442    -0.07500
N1722       N  0.38144339  0.43795174  0.62927605    -0.60000
N1723       N  0.32450665  0.39644400  0.59679448    -0.05600
N1724       N  0.30204484  0.39597434  0.59694995    -0.61300
N1725       N  0.33342349  0.38362059  0.61324440    -0.07500
N1726       N  0.31616721  0.37403288  0.62507040    -0.60300
N1727       N  0.36115833  0.43244187  0.59895184    -0.05300
N1728       N  0.36143648  0.45483005  0.60116476    -0.61300
Mn1729     Mn  0.34329039  0.41566465  0.57172093     1.18400
C1730       C  0.37402639  0.45843596  0.61996344     0.97000
C1731       C  0.29656858  0.38208343  0.61443956     0.97600
N1732       N  0.41109841  0.38630113  0.52795554    -0.07500
N1733       N  0.42563749  0.39706848  0.51435506    -0.63800
N1734       N  0.38437581  0.33729684  0.54174059    -0.06300
N1735       N  0.38158647  0.31517406  0.53825869    -0.64500
N1736       N  0.37321722  0.34937591  0.52629258    -0.07000
N1737       N  0.36247856  0.33577964  0.51191223    -0.64100
N1738       N  0.42219987  0.37422217  0.54345155    -0.05900
N1739       N  0.44455776  0.37635562  0.54072372    -0.64800
Mn1740     Mn  0.37358516  0.38672484  0.52718522     1.10700
C1741       C  0.44648501  0.39089005  0.52264633     0.98200
C1742       C  0.36769502  0.31446564  0.51973126     0.98300
N1743       N  0.37425777  0.34293823  0.61183858    -0.07100
N1744       N  0.36681115  0.32572340  0.62505731    -0.62400
N1745       N  0.42223336  0.37009267  0.59622821    -0.06400
N1746       N  0.44466930  0.36940392  0.59788801    -0.59200
N1747       N  0.41269464  0.38081753  0.61376392    -0.07700
N1748       N  0.42931790  0.38785135  0.62779197    -0.62000
N1749       N  0.38566833  0.33416627  0.59433407    -0.06700
N1750       N  0.38632463  0.31165648  0.59518635    -0.59200
Mn1751     Mn  0.37318261  0.38227982  0.61529773     1.20200
Mn1752     Mn  0.40385575  0.35373385  0.56888361     1.10100
Cl1753     Cl  0.37352545  0.38457011  0.57117305    -0.87100
C1754       C  0.37459217  0.30625373  0.61424678     0.95200
C1755       C  0.44924253  0.38043582  0.61745747     0.95000
N1756       N  0.39270331  0.67234816  0.63378822    -0.07300
N1757       N  0.37893013  0.68957190  0.64060843    -0.59400
N1758       N  0.41180791  0.64479962  0.58705586    -0.07000
N1759       N  0.41081499  0.64522532  0.56461807    -0.61600
N1760       N  0.39442643  0.63357543  0.59612909    -0.06600
N1761       N  0.38105498  0.62612123  0.57917985    -0.59400
N1762       N  0.41019665  0.68136713  0.62268165    -0.06300
N1763       N  0.40898184  0.70372856  0.62169294    -0.61900
C1764       C  0.38966205  0.70914595  0.63274559     0.94900
C1765       C  0.39177675  0.63363087  0.55953288     0.94700
N1766       N  0.48031474  0.63435366  0.60018707    -0.07500
N1767       N  0.49469100  0.62393727  0.58614175    -0.60000
N1768       N  0.46206558  0.68276303  0.62542501    -0.05600
N1769       N  0.46354915  0.70515624  0.62833595    -0.61300
N1770       N  0.47777895  0.67197511  0.63742458    -0.07500
N1771       N  0.49024398  0.68665290  0.64899276    -0.60300
N1772       N  0.46424746  0.64504023  0.58854682    -0.05300
N1773       N  0.46730023  0.64242758  0.56631294    -0.61300
Mn1774     Mn  0.43704169  0.66359315  0.60569006     1.18400
C1775       C  0.48627161  0.62911520  0.56507336     0.97000
C1776       C  0.48110540  0.70731147  0.64329234     0.97600
N1777       N  0.39468141  0.59264578  0.63656610    -0.07500
N1778       N  0.38193610  0.57544187  0.62850350    -0.63800
N1779       N  0.40978885  0.61998418  0.68418076    -0.06300
N1780       N  0.40843521  0.62004366  0.70658431    -0.64500
N1781       N  0.39272931  0.63148756  0.67467442    -0.07000
N1782       N  0.37921321  0.63972501  0.69135319    -0.64100
N1783       N  0.41214749  0.58364321  0.64791268    -0.05900
N1784       N  0.41177600  0.56113520  0.64785657    -0.64800
Mn1785     Mn  0.39181543  0.63250186  0.63533675     1.10700
C1786       C  0.39306338  0.55578004  0.63578221     0.98200
C1787       C  0.38951116  0.63225183  0.71126925     0.98300
N1788       N  0.47749957  0.63514385  0.67478459    -0.07100
N1789       N  0.48988364  0.64672992  0.68954787    -0.62400
N1790       N  0.46509705  0.58553977  0.64851842    -0.06400
N1791       N  0.46950162  0.56336776  0.64672636    -0.59200
N1792       N  0.48089270  0.59753783  0.63794675    -0.07700
N1793       N  0.49634335  0.58394279  0.62855582    -0.62000
N1794       N  0.46170996  0.62325271  0.68547634    -0.06700
N1795       N  0.46297938  0.62635000  0.70781832    -0.59200
Mn1796     Mn  0.48000548  0.63475865  0.63759828     1.20200
Mn1797     Mn  0.43713027  0.60274393  0.66668748     1.10100
Cl1798     Cl  0.43622517  0.63331620  0.63627949    -0.87100
C1799       C  0.48048675  0.64124307  0.71009337     0.95200
C1800       C  0.48893686  0.56267446  0.63394880     0.95000
N1801       N  0.66496279  0.47695125  0.63726158    -0.07300
N1802       N  0.68008711  0.49001696  0.64756659    -0.59400
N1803       N  0.63792163  0.46319106  0.58836591    -0.07000
N1804       N  0.63561885  0.46614862  0.56606275    -0.61600
N1805       N  0.62756400  0.47963498  0.59972960    -0.06600
N1806       N  0.61769276  0.49416681  0.58542345    -0.59400
N1807       N  0.67530580  0.46076082  0.62553089    -0.06300
N1808       N  0.69778795  0.46249200  0.62737853    -0.61900
C1809       C  0.70050465  0.48065614  0.64145748     0.94900
C1810       C  0.62281527  0.48545982  0.56450916     0.94700
N1811       N  0.62456599  0.39404188  0.59655076    -0.07500
N1812       N  0.61660830  0.38093939  0.57954180    -0.60000
N1813       N  0.67238374  0.40870024  0.62390922    -0.05600
N1814       N  0.69472178  0.40751103  0.62458813    -0.61300
N1815       N  0.66265476  0.39211721  0.63581825    -0.07500
N1816       N  0.67931584  0.37911957  0.64513420    -0.60300
N1817       N  0.63673945  0.41072549  0.58735799    -0.05300
N1818       N  0.63753291  0.40939100  0.56489651    -0.61300
Mn1819     Mn  0.65567999  0.43581689  0.60606744     1.18400
C1820       C  0.62503678  0.39093817  0.55979113     0.97000
C1821       C  0.69932844  0.38929065  0.63776078     0.97600
N1822       N  0.59047574  0.48229371  0.63717175    -0.07500
N1823       N  0.57720577  0.49821058  0.62796453    -0.63800
N1824       N  0.61517717  0.46396999  0.68567912    -0.06300
N1825       N  0.61609608  0.46752859  0.70800371    -0.64500
N1826       N  0.62749330  0.47918034  0.67460230    -0.07000
N1827       N  0.63715974  0.49341350  0.68910181    -0.64100
N1828       N  0.57815679  0.46710443  0.64824674    -0.05900
N1829       N  0.55615281  0.47236411  0.64703022    -0.64800
Mn1830     Mn  0.62773945  0.48022885  0.63716446     1.10700
C1831       C  0.55581101  0.49173594  0.63415219     0.98200
C1832       C  0.63018479  0.48577464  0.70993716     0.98300
N1833       N  0.62134464  0.39374271  0.67587174    -0.07100
N1834       N  0.62823225  0.37955545  0.69265167    -0.62400
N1835       N  0.57488884  0.41435545  0.64839700    -0.06400
N1836       N  0.55238897  0.41459789  0.64820159    -0.59200
N1837       N  0.58340801  0.39667896  0.63703367    -0.07700
N1838       N  0.56593373  0.38446861  0.62880305    -0.62000
N1839       N  0.61066430  0.41139900  0.68526485    -0.06700
N1840       N  0.60985717  0.40969908  0.70770390    -0.59200
Mn1841     Mn  0.62290884  0.39228514  0.63633045     1.20200
Mn1842     Mn  0.59452134  0.43914265  0.66706657     1.10100
Cl1843     Cl  0.62511802  0.43634900  0.63666662    -0.87100
C1844       C  0.62072871  0.38994984  0.71246428     0.95200
C1845       C  0.54660964  0.39607617  0.63605215     0.95000
N1846       N  0.33411256  0.61942139  0.38664981    -0.07300
N1847       N  0.31852435  0.63317523  0.37673655    -0.59400
N1848       N  0.35842273  0.60039920  0.43545038    -0.07000
N1849       N  0.35771137  0.60198370  0.45787249    -0.61600
N1850       N  0.37156358  0.61624617  0.42611858    -0.06600
N1851       N  0.38033055  0.62898434  0.44291682    -0.59400
N1852       N  0.32316725  0.60386184  0.39893491    -0.06300
N1853       N  0.30089424  0.60674115  0.39828203    -0.61900
C1854       C  0.29790488  0.62494865  0.38463444     0.94900
C1855       C  0.37128927  0.61972256  0.46267771     0.94700
N1856       N  0.36505139  0.53124517  0.42379841    -0.07500
N1857       N  0.37554097  0.51710779  0.43803784    -0.60000
N1858       N  0.31831355  0.55150337  0.39749175    -0.05600
N1859       N  0.29578010  0.54962944  0.39618340    -0.61300
N1860       N  0.32846694  0.53520631  0.38571869    -0.07500
N1861       N  0.31320386  0.52197454  0.37590906    -0.60300
N1862       N  0.35523569  0.54803466  0.43513198    -0.05300
N1863       N  0.35864243  0.54572161  0.45740367    -0.61300
Mn1864     Mn  0.33858656  0.57597442  0.41699794     1.18400
C1865       C  0.37139955  0.52634410  0.45891639     0.97000
C1866       C  0.29289709  0.53130854  0.38231190     0.97600
N1867       N  0.41323707  0.61247089  0.38677892    -0.07500
N1868       N  0.43086817  0.62451950  0.39496489    -0.63800
N1869       N  0.38662754  0.59849644  0.33797741    -0.06300
N1870       N  0.38735410  0.60003037  0.31547349    -0.64500
N1871       N  0.37568970  0.61609649  0.34719906    -0.07000
N1872       N  0.36833130  0.62992248  0.33032836    -0.64100
N1873       N  0.42154236  0.59445205  0.37582962    -0.05900
N1874       N  0.44405762  0.59385316  0.37617426    -0.64800
Mn1875     Mn  0.37376373  0.61777630  0.38663685     1.10700
C1876       C  0.45007486  0.61247638  0.38806818     0.98200
C1877       C  0.37604621  0.61954301  0.31061049     0.98300
N1878       N  0.36698863  0.53144705  0.34901125    -0.07100
N1879       N  0.35790170  0.51678914  0.33460158    -0.62400
N1880       N  0.41610838  0.54153759  0.37652746    -0.06400
N1881       N  0.43768920  0.53463160  0.37804232    -0.59200
N1882       N  0.40259660  0.52709274  0.38719812    -0.07700
N1883       N  0.41455858  0.51018963  0.39633367    -0.62000
N1884       N  0.38047383  0.54577827  0.33807664    -0.06700
N1885       N  0.38095778  0.54112787  0.31592216    -0.59200
Mn1886     Mn  0.36554138  0.53064145  0.38639530     1.20200
Mn1887     Mn  0.40144058  0.57016149  0.35696022     1.10100
Cl1888     Cl  0.36985649  0.57405526  0.38667682    -0.87100
C1889       C  0.36649142  0.52318498  0.31397104     0.95200
C1890       C  0.43645445  0.51504974  0.39066540     0.95000
N1891       N  0.58423928  0.12956267  0.90337082    -0.07300
N1892       N  0.56706855  0.12111250  0.89071456    -0.59400
N1893       N  0.61096896  0.17774390  0.91921324    -0.07000
N1894       N  0.61082464  0.20016673  0.91748273    -0.61600
N1895       N  0.62290610  0.16805240  0.90256615    -0.06600
N1896       N  0.63154161  0.18457149  0.88915126    -0.59400
N1897       N  0.57509975  0.14133095  0.92043934    -0.06300
N1898       N  0.55267150  0.14116710  0.91996799    -0.61900
C1899       C  0.54738136  0.12862515  0.90164297     0.94900
C1900       C  0.62354455  0.20452701  0.89884847     0.94700
N1901       N  0.62363086  0.16778608  0.98785349    -0.07500
N1902       N  0.63375144  0.18229275  0.00169625    -0.60000
N1903       N  0.57500981  0.14137270  0.97300358    -0.05600
N1904       N  0.55271413  0.13916855  0.97622094    -0.61300
N1905       N  0.58645017  0.13046414  0.98906927    -0.07500
N1906       N  0.57232742  0.12036924  0.00354132    -0.60300
N1907       N  0.61219433  0.17881127  0.97186119    -0.05300
N1908       N  0.61403786  0.20119053  0.97452947    -0.61300
Mn1909     Mn  0.59310576  0.16003642  0.94605072     1.18400
C1910       C  0.62773816  0.20307975  0.99312260     0.97000
C1911       C  0.55134489  0.12575297  0.99520660     0.97600
N1912       N  0.66396013  0.12811072  0.90357412    -0.07500
N1913       N  0.68086838  0.13707565  0.89080877    -0.63800
N1914       N  0.63719859  0.07990089  0.92130764    -0.06300
N1915       N  0.63833368  0.05744889  0.92000719    -0.64500
N1916       N  0.62591932  0.08903349  0.90388751    -0.07000
N1917       N  0.61898908  0.07205521  0.89026437    -0.64100
N1918       N  0.67327395  0.11651928  0.92072614    -0.05900
N1919       N  0.69577423  0.11708605  0.92001380    -0.64800
Mn1920     Mn  0.62420798  0.12862908  0.90154925     1.10700
C1921       C  0.70071985  0.12983037  0.90145870     0.98200
C1922       C  0.62702460  0.05237970  0.90074194     0.98300
N1923       N  0.62349600  0.09337614  0.98952031    -0.07100
N1924       N  0.61197739  0.07966714  0.00328432    -0.62400
N1925       N  0.67216152  0.11889139  0.97295140    -0.06400
N1926       N  0.69438601  0.12228541  0.97466739    -0.59200
N1927       N  0.66094846  0.13065587  0.98852033    -0.07700
N1928       N  0.67526365  0.14244981  0.00124868    -0.62000
N1929       N  0.63470060  0.08154144  0.97397862    -0.06700
N1930       N  0.63124180  0.05937271  0.97692014    -0.59200
Mn1931     Mn  0.62370949  0.13056423  0.98957277     1.20200
Mn1932     Mn  0.65453521  0.09886903  0.94730842     1.10100
Cl1933     Cl  0.62384568  0.12947264  0.94566542    -0.87100
C1934       C  0.61689016  0.05849778  0.99520931     0.95200
C1935       C  0.69605395  0.13719625  0.99223769     0.95000
N1936       N  0.15724872  0.98880857  0.63579013    -0.07300
N1937       N  0.17112548  0.00319762  0.64615834    -0.59400
N1938       N  0.13057667  0.97278761  0.58750037    -0.07000
N1939       N  0.12788420  0.97629825  0.56532087    -0.61600
N1940       N  0.11876814  0.98786564  0.59934642    -0.06600
N1941       N  0.10770678  0.00205055  0.58548331    -0.59400
N1942       N  0.16905401  0.97380188  0.62386880    -0.06300
N1943       N  0.19123569  0.97760401  0.62575387    -0.61900
C1944       C  0.19235618  0.99596194  0.63978305     0.94900
C1945       C  0.11336633  0.99447780  0.56425833     0.94700
N1946       N  0.12538153  0.90232850  0.59461015    -0.07500
N1947       N  0.11914197  0.88837550  0.57763620    -0.60000
N1948       N  0.17236800  0.92131505  0.62138560    -0.05600
N1949       N  0.19487037  0.92168627  0.62149874    -0.61300
N1950       N  0.16423842  0.90333053  0.63250750    -0.07500
N1951       N  0.18199234  0.89104277  0.64054321    -0.60300
N1952       N  0.13539350  0.92045519  0.58553545    -0.05300
N1953       N  0.13619897  0.91937282  0.56307068    -0.61300
Mn1954     Mn  0.15201109  0.94709646  0.60436057     1.18400
C1955       C  0.12611308  0.89947833  0.55797916     0.97000
C1956       C  0.20107184  0.90292578  0.63339390     0.97600
N1957       N  0.08270691  0.98414310  0.63761049    -0.07500
N1958       N  0.06740571  0.99644271  0.62631103    -0.63800
N1959       N  0.11127973  0.96758268  0.68510575    -0.06300
N1960       N  0.11605151  0.96832533  0.70719796    -0.64500
N1961       N  0.12120033  0.98446918  0.67402626    -0.07000
N1962       N  0.13310610  0.99707422  0.68826811    -0.64100
N1963       N  0.07273319  0.96740347  0.64883675    -0.05900
N1964       N  0.05036675  0.96790306  0.64554998    -0.64800
Mn1965     Mn  0.11983841  0.98722542  0.63678654     1.10700
C1966       C  0.04732083  0.98609129  0.63142875     0.98200
C1967       C  0.12976655  0.98678391  0.70886643     0.98300
N1968       N  0.12436472  0.89919438  0.67340451    -0.07100
N1969       N  0.13358914  0.88530105  0.68924011    -0.62400
N1970       N  0.07519773  0.91548158  0.64837879    -0.06400
N1971       N  0.05280127  0.91415637  0.64849114    -0.59200
N1972       N  0.08483502  0.89942557  0.63564626    -0.07700
N1973       N  0.06808289  0.88666570  0.62666786    -0.62000
N1974       N  0.11207099  0.91508975  0.68389745    -0.06700
N1975       N  0.11220482  0.91235303  0.70627765    -0.59200
Mn1976     Mn  0.12475019  0.89927955  0.63394518     1.20200
Mn1977     Mn  0.09262253  0.94143619  0.66690307     1.10100
Cl1978     Cl  0.12235237  0.94326075  0.63547639    -0.87100
C1979       C  0.12552185  0.89384988  0.70963947     0.95200
C1980       C  0.04808531  0.89632471  0.63504658     0.95000
N1981       N  0.12084106  0.65918661  0.99011886    -0.07300
N1982       N  0.12920320  0.67275633  0.00601280    -0.59400
N1983       N  0.07288312  0.63358314  0.97226064    -0.07000
N1984       N  0.05060382  0.63058688  0.97469229    -0.61600
N1985       N  0.08419596  0.62169502  0.98775274    -0.06600
N1986       N  0.06997894  0.61021619  0.00101152    -0.59400
N1987       N  0.10960769  0.67115794  0.97461955    -0.06300
N1988       N  0.10991428  0.69318276  0.97963759    -0.61900
C1989       C  0.12231777  0.69392589  0.99918400     0.94900
C1990       C  0.04908120  0.61572039  0.99255795     0.94700
N1991       N  0.08210425  0.62720784  0.90214091    -0.07500
N1992       N  0.06530868  0.62044161  0.88809510    -0.60000
N1993       N  0.10955301  0.67408637  0.92149621    -0.05600
N1994       N  0.10965351  0.69662741  0.92083049    -0.61300
N1995       N  0.12105018  0.66513759  0.90411342    -0.07500
N1996       N  0.12934127  0.68225250  0.89123407    -0.60300
N1997       N  0.07267037  0.63802563  0.91965747    -0.05300
N1998       N  0.05022258  0.63892815  0.91802681    -0.61300
Mn1999     Mn  0.09099441  0.65447979  0.94698831     1.18400
C2000       C  0.04538395  0.62802980  0.89844838     0.97000
C2001       C  0.12193883  0.70189600  0.90203142     0.97600
N2002       N  0.12131110  0.58456827  0.98667673    -0.07500
N2003       N  0.10992665  0.56966972  0.99929766    -0.63800
N2004       N  0.17015018  0.61115516  0.97232458    -0.06300
N2005       N  0.19247257  0.61309259  0.97520943    -0.64500
N2006       N  0.15888167  0.62195256  0.98855180    -0.07000
N2007       N  0.17326509  0.63172443  0.00285547    -0.64100
N2008       N  0.13277427  0.57402939  0.97045211    -0.05900
N2009       N  0.12971472  0.55166318  0.97167955    -0.64800
Mn2010     Mn  0.12140061  0.62185938  0.98909449     1.10700
C2011       C  0.11524496  0.54920965  0.98966869     0.98200
C2012       C  0.19416445  0.62608503  0.99425150     0.98300
N2013       N  0.16155987  0.62415170  0.90287730    -0.07100
N2014       N  0.17876434  0.63233403  0.88998512    -0.62400
N2015       N  0.13440596  0.57618655  0.91840246    -0.06400
N2016       N  0.13457335  0.55380032  0.91685130    -0.59200
N2017       N  0.12282429  0.58597724  0.90154503    -0.07700
N2018       N  0.11469982  0.56942894  0.88799606    -0.62000
N2019       N  0.17053172  0.61222530  0.91995664    -0.06700
N2020       N  0.19295314  0.61198041  0.91925433    -0.59200
Mn2021     Mn  0.12187364  0.62564803  0.90088935     1.20200
Mn2022     Mn  0.15215866  0.59326943  0.94525155     1.10100
Cl2023     Cl  0.12162374  0.62393935  0.94513402    -0.87100
C2024       C  0.19833955  0.62445664  0.90073995     0.95200
C2025       C  0.12239334  0.54936395  0.89802644     0.95000
N2026       N  0.89448465  0.58828292  0.13569154    -0.07300
N2027       N  0.88164235  0.57088202  0.12829612    -0.59400
N2028       N  0.91059843  0.61624780  0.18298056    -0.07000
N2029       N  0.90862221  0.61551790  0.20543771    -0.61600
N2030       N  0.89328393  0.62732764  0.17331962    -0.06600
N2031       N  0.87916457  0.63470235  0.18990506    -0.59400
N2032       N  0.91196447  0.57961224  0.14723900    -0.06300
N2033       N  0.91154000  0.55716371  0.14795663    -0.61900
C2034       C  0.89277648  0.55148219  0.13621332     0.94900
C2035       C  0.88914298  0.62699605  0.20989440     0.94700
N2036       N  0.97913637  0.63008402  0.17045458    -0.07500
N2037       N  0.99264607  0.64135905  0.18447171    -0.60000
N2038       N  0.96429842  0.58058523  0.14571850    -0.05600
N2039       N  0.96727286  0.55825101  0.14351603    -0.61300
N2040       N  0.97985923  0.59178092  0.13398234    -0.07500
N2041       N  0.99375148  0.57740448  0.12332970    -0.60300
N2042       N  0.96345546  0.61889987  0.18207609    -0.05300
N2043       N  0.96596770  0.62211603  0.20429131    -0.61300
Mn2044     Mn  0.93761627  0.59868634  0.16476500     1.18400
C2045       C  0.98415611  0.63627980  0.20553691     0.97000
C2046       C  0.98556687  0.55654939  0.12928348     0.97600
N2047       N  0.89280869  0.66764122  0.13163721    -0.07500
N2048       N  0.87938342  0.68480092  0.13917331    -0.63800
N2049       N  0.91045130  0.63960406  0.08457348    -0.06300
N2050       N  0.90942162  0.63963218  0.06215273    -0.64500
N2051       N  0.89326549  0.62836028  0.09397152    -0.07000
N2052       N  0.87993023  0.62049224  0.07707958    -0.64100
N2053       N  0.90991374  0.67666343  0.11989020    -0.05900
N2054       N  0.90863837  0.69907845  0.11909436    -0.64800
Mn2055     Mn  0.89165929  0.62790258  0.13366464     1.10700
C2056       C  0.88973916  0.70442231  0.13101983     0.98200
C2057       C  0.89056439  0.62778412  0.05720377     0.98300
N2058       N  0.97869789  0.62781927  0.09573966    -0.07100
N2059       N  0.99197010  0.61619668  0.08156664    -0.62400
N2060       N  0.96239577  0.67718793  0.12046450    -0.06400
N2061       N  0.96490554  0.69961001  0.12199821    -0.59200
N2062       N  0.97846907  0.66637054  0.13197669    -0.07700
N2063       N  0.99224551  0.68110815  0.14185082    -0.62000
N2064       N  0.96255300  0.63869281  0.08438343    -0.06700
N2065       N  0.96446919  0.63494147  0.06216583    -0.59200
Mn2066     Mn  0.97990624  0.62904879  0.13306062     1.20200
Mn2067     Mn  0.93629848  0.65822573  0.10218778     1.10100
Cl2068     Cl  0.93591597  0.62850714  0.13351879    -0.87100
C2069       C  0.98282542  0.62075114  0.06068854     0.95200
C2070       C  0.98352799  0.70178239  0.13555865     0.95000
N2071       N  0.89206645  0.16405634  0.63035119    -0.07300
N2072       N  0.87990174  0.18145467  0.63909252    -0.59400
N2073       N  0.90595707  0.13661506  0.58231966    -0.07000
N2074       N  0.90331197  0.13821756  0.56008883    -0.61600
N2075       N  0.88865118  0.12603837  0.59233783    -0.06600
N2076       N  0.87362994  0.12014325  0.57608024    -0.59400
N2077       N  0.90915995  0.17257815  0.61820835    -0.06300
N2078       N  0.90909128  0.19501555  0.61832512    -0.61900
C2079       C  0.89100531  0.20070621  0.63130636     0.94900
C2080       C  0.88328675  0.12811559  0.55599601     0.94700
N2081       N  0.97415603  0.12099178  0.58972172    -0.07500
N2082       N  0.98803130  0.11146695  0.57454406    -0.60000
N2083       N  0.96178565  0.17072852  0.61612481    -0.05600
N2084       N  0.96578442  0.19290787  0.61820763    -0.61300
N2085       N  0.97770486  0.15864638  0.62651751    -0.07500
N2086       N  0.99282413  0.17214138  0.63616272    -0.60300
N2087       N  0.95809278  0.13291592  0.57935801    -0.05300
N2088       N  0.96055749  0.13182235  0.55690034    -0.61300
Mn2089     Mn  0.93369974  0.15338727  0.59886427     1.18400
C2090       C  0.97913861  0.11809166  0.55407988     0.97000
C2091       C  0.98517885  0.19348452  0.63093957     0.97600
N2092       N  0.88954219  0.08527352  0.63384820    -0.07500
N2093       N  0.87579457  0.06849199  0.62663494    -0.63800
N2094       N  0.90960627  0.11304712  0.68035838    -0.06300
N2095       N  0.90924163  0.11312864  0.70284663    -0.64500
N2096       N  0.89197992  0.12432050  0.67158227    -0.07000
N2097       N  0.87912781  0.13240661  0.68888977    -0.64100
N2098       N  0.90681377  0.07584797  0.64512371    -0.05900
N2099       N  0.90532828  0.05345334  0.64593484    -0.64800
Mn2100     Mn  0.88867880  0.12487763  0.63202147     1.10700
C2101       C  0.88610813  0.04863995  0.63451769     0.98200
C2102       C  0.89037781  0.12513645  0.70839279     0.98300
N2103       N  0.97785215  0.12250134  0.66442254    -0.07100
N2104       N  0.99276467  0.13320937  0.67735298    -0.62400
N2105       N  0.95880554  0.07412271  0.64060653    -0.06400
N2106       N  0.96037103  0.05168323  0.63813601    -0.59200
N2107       N  0.97413553  0.08450086  0.62786080    -0.07700
N2108       N  0.98647493  0.06949051  0.61633168    -0.62000
N2109       N  0.96233167  0.11238506  0.67716753    -0.06700
N2110       N  0.96646526  0.11573639  0.69918670    -0.59200
Mn2111     Mn  0.97666873  0.12149363  0.62708949     1.20200
Mn2112     Mn  0.93442220  0.09367436  0.66116594     1.10100
Cl2113     Cl  0.93279261  0.12334205  0.62978847    -0.87100
C2114       C  0.98546325  0.12895880  0.69901496     0.95200
C2115       C  0.97757137  0.04907248  0.62269538     0.95000
N2116       N  0.58665771  0.98390473  0.13730039    -0.07300
N2117       N  0.57206790  0.99773655  0.12680824    -0.59400
N2118       N  0.61526595  0.96604678  0.18406175    -0.07000
N2119       N  0.61816511  0.96863319  0.20635110    -0.61600
N2120       N  0.62630715  0.98193407  0.17256914    -0.06600
N2121       N  0.63707607  0.99570286  0.18675590    -0.59400
N2122       N  0.57566696  0.96788974  0.14865098    -0.06300
N2123       N  0.55327337  0.97053085  0.14626068    -0.61900
C2124       C  0.55126066  0.98922545  0.13250832     0.94900
C2125       C  0.63205890  0.98704909  0.20779415     0.94700
N2126       N  0.62418827  0.89643597  0.17237037    -0.07500
N2127       N  0.63294397  0.88208164  0.18809793    -0.60000
N2128       N  0.57474533  0.91514371  0.14905132    -0.05600
N2129       N  0.55231315  0.91417588  0.15051567    -0.61300
N2130       N  0.58327228  0.89820854  0.13667742    -0.07500
N2131       N  0.56592355  0.88528499  0.12939916    -0.60300
N2132       N  0.61334611  0.91326042  0.18307363    -0.05300
N2133       N  0.61416767  0.91077145  0.20547469    -0.61300
Mn2134     Mn  0.59452936  0.94060724  0.16647608     1.18400
C2135       C  0.62629351  0.89143067  0.20866769     0.97000
C2136       C  0.54662024  0.89564667  0.13831796     0.97600
N2137       N  0.66136092  0.98190695  0.13240663    -0.07500
N2138       N  0.67676670  0.99535454  0.14172853    -0.63800
N2139       N  0.63128336  0.96835469  0.08539958    -0.06300
N2140       N  0.62727064  0.97183422  0.06340532    -0.64500
N2141       N  0.62134922  0.98426780  0.09784206    -0.07000
N2142       N  0.61019755  0.99895837  0.08462648    -0.64100
N2143       N  0.67138439  0.96629732  0.11960689    -0.05900
N2144       N  0.69385153  0.96880781  0.11973875    -0.64800
Mn2145     Mn  0.62401927  0.98384844  0.13515275     1.10700
C2146       C  0.69695555  0.98681354  0.13388861     0.98200
C2147       C  0.61386054  0.99084823  0.06318611     0.98300
N2148       N  0.62057292  0.89862870  0.09322601    -0.07100
N2149       N  0.61053541  0.88633183  0.07672068    -0.62400
N2150       N  0.67085690  0.91380560  0.11694743    -0.06400
N2151       N  0.69331495  0.91235655  0.11566216    -0.59200
N2152       N  0.66207171  0.89684675  0.12909445    -0.07700
N2153       N  0.67928389  0.88344505  0.13650964    -0.62000
N2154       N  0.63133494  0.91597294  0.08349471    -0.06700
N2155       N  0.62886287  0.91610432  0.06112942    -0.59200
Mn2156     Mn  0.62258273  0.89582306  0.13281495     1.20200
Mn2157     Mn  0.65141252  0.94105401  0.10111180     1.10100
Cl2158     Cl  0.62318749  0.93994205  0.13396935    -0.87100
C2159       C  0.61583373  0.89784648  0.05672890     0.95200
C2160       C  0.69876720  0.89348523  0.12777554     0.95000
C2161       C  0.00902697  0.62593214  0.00208268    -0.27500
C2162       C  0.02771690  0.61089507  0.00499834    -0.15600
C2163       C  0.02742283  0.59473567  0.02307612     0.35100
C2164       C  0.01054548  0.59648685  0.04001449    -0.27000
C2165       C  0.99417976  0.61419853  0.03917221    -0.16200
C2166       C  0.99226322  0.62787283  0.01920601     0.36100
N2167       N  0.97470655  0.64510784  0.01712957    -0.90400
H2168       H  0.00865446  0.63794550  0.98780501     0.17300
H2169       H  0.01149762  0.58522782  0.05485103     0.17200
N2170       N  0.04502952  0.57753687  0.02512616    -0.89500
H2171       H  0.96546538  0.64191737  0.00212285     0.34600
H2172       H  0.98261906  0.66107738  0.01532012     0.39700
H2173       H  0.03715879  0.56146019  0.02547325     0.39300
H2174       H  0.05333880  0.57978670  0.04084743     0.34200
C2175       C  0.98730978  0.00963710  0.63485017    -0.27500
C2176       C  0.98953059  0.02727102  0.61852977    -0.15600
C2177       C  0.00731941  0.02616263  0.60218283     0.35100
C2178       C  0.02490711  0.01011861  0.60510619    -0.27000
C2179       C  0.02505051  0.99550414  0.62427592    -0.16200
C2180       C  0.00515221  0.99389547  0.63818328     0.36100
N2181       N  0.00337829  0.97814696  0.65706444    -0.90400
H2182       H  0.97318307  0.00980397  0.64700822     0.17300
H2183       H  0.03956439  0.01067838  0.59361577     0.17200
N2184       N  0.00863075  0.04249994  0.58377574    -0.89500
H2185       H  0.01619631  0.98175298  0.66899777     0.34600
H2186       H  0.00566617  0.96148853  0.65082899     0.39700
H2187       H  0.00913241  0.03345633  0.56830829     0.39300
H2188       H  0.02409154  0.05136142  0.58534145     0.34200
C2189       C  0.62233218  0.00038963  0.02274514    -0.27500
C2190       C  0.60861692  0.00400431  0.04226051    -0.15600
C2191       C  0.59306522  0.02263403  0.04273817     0.35100
C2192       C  0.59427684  0.03927351  0.02538001    -0.27000
C2193       C  0.61071629  0.03750106  0.00779242    -0.16200
C2194       C  0.62363525  0.01710678  0.00551225     0.36100
N2195       N  0.63945800  0.01406407  0.98687064    -0.90400
H2196       H  0.63379393  0.98568291  0.02183599     0.17300
H2197       H  0.58360572  0.05452259  0.02660898     0.17200
N2198       N  0.57713369  0.02527524  0.06146609    -0.89500
H2199       H  0.63513550  0.99899048  0.97826697     0.34600
H2200       H  0.65590841  0.01188469  0.99371674     0.39700
H2201       H  0.56583560  0.01142243  0.06089354     0.39300
H2202       H  0.56717414  0.04013744  0.05933311     0.34200
C2203       C  0.39898266  0.64100247  0.51785602    -0.27500
C2204       C  0.38473167  0.63105269  0.53495853    -0.15600
C2205       C  0.36493671  0.61940165  0.52792024     0.35100
C2206       C  0.36041120  0.61727641  0.50421275    -0.27000
C2207       C  0.37531730  0.62628745  0.48714872    -0.16200
C2208       C  0.39447976  0.63884365  0.49421221     0.36100
N2209       N  0.40981667  0.64860729  0.47749785    -0.90400
H2210       H  0.41413386  0.65037979  0.52284113     0.17300
H2211       H  0.34534573  0.60784098  0.49904849     0.17200
N2212       N  0.34963019  0.60958684  0.54463960    -0.89500
H2213       H  0.42367141  0.65650645  0.48555707     0.34600
H2214       H  0.40082692  0.66162615  0.46886965     0.39700
H2215       H  0.35838311  0.59607981  0.55275132     0.39300
H2216       H  0.33543997  0.60230324  0.53658501     0.34200
C2217       C  0.49960985  0.52273834  0.64423561    -0.27500
C2218       C  0.50264231  0.54182405  0.62979077    -0.15600
C2219       C  0.52075245  0.54188446  0.61363777     0.35100
C2220       C  0.53704282  0.52415140  0.61423216    -0.27000
C2221       C  0.53548678  0.50640374  0.63050381    -0.16200
C2222       C  0.51595894  0.50503041  0.64481240     0.36100
N2223       N  0.51333855  0.48658870  0.66096870    -0.90400
H2224       H  0.48545486  0.52230471  0.65634993     0.17300
H2225       H  0.55164231  0.52482166  0.60266958     0.17200
N2226       N  0.52305097  0.56036544  0.59732583    -0.89500
H2227       H  0.49777249  0.47846053  0.65759353     0.34600
H2228       H  0.51238166  0.49358307  0.67745636     0.39700
H2229       H  0.50880190  0.55986252  0.58646869     0.39300
H2230       H  0.53752750  0.55793208  0.58693126     0.34200
C2231       C  0.49056851  0.36845351  0.61573439    -0.27500
C2232       C  0.47366136  0.38342069  0.62498081    -0.15600
C2233       C  0.48096995  0.40176603  0.63869557     0.35100
C2234       C  0.50473318  0.40498385  0.64232269    -0.27000
C2235       C  0.52170376  0.39047505  0.63235142    -0.16200
C2236       C  0.51426096  0.37184025  0.61920342     0.36100
N2237       N  0.53059679  0.35649836  0.60897182    -0.90400
H2238       H  0.48541311  0.35412340  0.60518549     0.17300
H2239       H  0.50996997  0.41941047  0.65267626     0.17200
N2240       N  0.46444717  0.41748897  0.64829970    -0.89500
H2241       H  0.52802478  0.35671640  0.59120192     0.34600
H2242       H  0.52721299  0.33991370  0.61498402     0.39700
H2243       H  0.45664464  0.42629025  0.63466617     0.39300
H2244       H  0.47261640  0.42989368  0.65822245     0.34200
C2245       C  0.36849955  0.49960118  0.51773433    -0.27500
C2246       C  0.38370392  0.48119004  0.51405189    -0.15600
C2247       C  0.39935799  0.48215545  0.49562632     0.35100
C2248       C  0.39652873  0.49908906  0.47883788    -0.27000
C2249       C  0.37847266  0.51499320  0.48032414    -0.16200
C2250       C  0.36561636  0.51654461  0.50091681     0.36100
N2251       N  0.34835405  0.53379431  0.50452093    -0.90400
H2252       H  0.35703921  0.49954964  0.53243219     0.17300
H2253       H  0.40734020  0.49874075  0.46366149     0.17200
N2254       N  0.41702885  0.46505165  0.49322293    -0.89500
H2255       H  0.33561295  0.53208981  0.49206460     0.34600
H2256       H  0.35596722  0.54992611  0.50291007     0.39700
H2257       H  0.42811123  0.46681902  0.50719077     0.39300
H2258       H  0.42675109  0.46812317  0.47841059     0.34200
C2259       C  0.36118204  0.49932642  0.62331657    -0.27500
C2260       C  0.37843819  0.48259048  0.62756498    -0.15600
C2261       C  0.40013891  0.49028093  0.63465026     0.35100
C2262       C  0.40410812  0.51399223  0.63701209    -0.27000
C2263       C  0.38703092  0.53086791  0.63219367    -0.16200
C2264       C  0.36518019  0.52307369  0.62549906     0.36100
N2265       N  0.34669509  0.53870911  0.62082084    -0.90400
H2266       H  0.34439359  0.49389599  0.61760799     0.17300
H2267       H  0.42111044  0.51921851  0.64223874     0.17200
N2268       N  0.41880277  0.47458788  0.63846187    -0.89500
H2269       H  0.35160024  0.54950911  0.60731225     0.34600
H2270       H  0.34375232  0.54863490  0.63546955     0.39700
H2271       H  0.42175136  0.46539666  0.62334364     0.39300
H2272       H  0.41400573  0.46304053  0.65138727     0.34200
C2273       C  0.64811643  0.53203403  0.75098812    -0.27500
C2274       C  0.62802796  0.53410635  0.76408679    -0.15600
C2275       C  0.61104222  0.51701025  0.76276753     0.35100
C2276       C  0.61329246  0.49980971  0.74615102    -0.27000
C2277       C  0.63205290  0.49952901  0.73097941    -0.16200
C2278       C  0.65035953  0.51487514  0.73453600     0.36100
N2279       N  0.67114534  0.51385129  0.72142024    -0.90400
H2280       H  0.66158929  0.54467119  0.75257554     0.17300
H2281       H  0.59943727  0.48772688  0.74389918     0.17200
N2282       N  0.59072821  0.51823176  0.77681228    -0.89500
H2283       H  0.66747665  0.51797631  0.70437060     0.34600
H2284       H  0.67770420  0.49710820  0.72231573     0.39700
H2285       H  0.59573301  0.51508966  0.79378137     0.39300
H2286       H  0.57932444  0.50515121  0.77256810     0.34200
C2287       C  0.52609969  0.66010235  0.75022541    -0.27500
C2288       C  0.52665273  0.64091246  0.76485225    -0.15600
C2289       C  0.50796400  0.62550088  0.76505894     0.35100
C2290       C  0.49064179  0.62820142  0.74887138    -0.27000
C2291       C  0.49222575  0.64521914  0.73186863    -0.16200
C2292       C  0.50897375  0.66236281  0.73363913     0.36100
N2293       N  0.50939957  0.68127618  0.71780771    -0.90400
H2294       H  0.53992218  0.67244860  0.75049612     0.17300
H2295       H  0.47748317  0.61517815  0.74794534     0.17200
N2296       N  0.50710586  0.60570500  0.77974967    -0.89500
H2297       H  0.52517068  0.68098884  0.70918249     0.34600
H2298       H  0.50847336  0.69646539  0.72727425     0.39700
H2299       H  0.50743777  0.61109150  0.79684638     0.39300
H2300       H  0.52131780  0.59518884  0.77636144     0.34200
C2301       C  0.25237438  0.48673243  0.36183552    -0.27500
C2302       C  0.23911878  0.48369007  0.38169894    -0.15600
C2303       C  0.23958354  0.50035948  0.39924034     0.35100
C2304       C  0.25577944  0.51803331  0.39786280    -0.27000
C2305       C  0.27118207  0.51910647  0.37935057    -0.16200
C2306       C  0.26830119  0.50452603  0.36037712     0.36100
N2307       N  0.28262849  0.50697762  0.34037865    -0.90400
H2308       H  0.25136778  0.47430958  0.34807393     0.17300
H2309       H  0.25781595  0.52955491  0.41226177     0.17200
N2310       N  0.22532299  0.49805929  0.41931367    -0.89500
H2311       H  0.27896317  0.52300485  0.33305139     0.34600
H2312       H  0.27847569  0.49467902  0.32806065     0.39700
H2313       H  0.20833501  0.50072300  0.41414164     0.39300
H2314       H  0.22890042  0.51096415  0.43116998     0.34200
C2315       C  0.24192525  0.39112994  0.49851864    -0.27500
C2316       C  0.24303823  0.37525469  0.48056223    -0.15600
C2317       C  0.26006153  0.35795187  0.48086186     0.35100
C2318       C  0.27791239  0.35916209  0.49676901    -0.27000
C2319       C  0.27872290  0.37722521  0.51253003    -0.16200
C2320       C  0.25972872  0.39228827  0.51456712     0.36100
N2321       N  0.25933905  0.41001914  0.53152675    -0.90400
H2322       H  0.22856436  0.40417510  0.49876435     0.17300
H2323       H  0.29193282  0.34686501  0.49574339     0.17200
N2324       N  0.25995213  0.33991721  0.46420168    -0.89500
H2325       H  0.24443972  0.40809434  0.54137697     0.34600
H2326       H  0.25836029  0.42587372  0.52306904     0.39700
H2327       H  0.25951366  0.32423165  0.47300559     0.39300
H2328       H  0.27534063  0.34057382  0.45493408     0.34200
C2329       C  0.50786406  0.76498197  0.63554567    -0.27500
C2330       C  0.52719277  0.76154686  0.64955368    -0.15600
C2331       C  0.52650641  0.74435652  0.66682839     0.35100
C2332       C  0.50894022  0.72834984  0.66655288    -0.27000
C2333       C  0.49219875  0.72906080  0.64935532    -0.16200
C2334       C  0.49006144  0.74886069  0.63543667     0.36100
N2335       N  0.47098510  0.75160778  0.62004256    -0.90400
H2336       H  0.50759634  0.77894745  0.62317835     0.17300
H2337       H  0.50976216  0.71397131  0.67842839     0.17200
N2338       N  0.54380450  0.74193537  0.68415864    -0.89500
H2339       H  0.47237308  0.76693576  0.61073057     0.34600
H2340       H  0.45616265  0.75316646  0.63011702     0.39700
H2341       H  0.54650878  0.75793732  0.69171865     0.39300
H2342       H  0.55903839  0.73591234  0.67682470     0.34200
C2343       C  0.59569645  0.74132876  0.72902810    -0.27500
C2344       C  0.61381511  0.75701982  0.72869904    -0.15600
C2345       C  0.62916692  0.75774654  0.74734572     0.35100
C2346       C  0.62794190  0.74076099  0.76436314    -0.27000
C2347       C  0.61195779  0.72296611  0.76261585    -0.16200
C2348       C  0.59458228  0.72420345  0.74586940     0.36100
N2349       N  0.57675927  0.70727028  0.74519963    -0.90400
H2350       H  0.58334383  0.74135106  0.71516115     0.17300
H2351       H  0.64098198  0.74027239  0.77760109     0.17200
N2352       N  0.64714686  0.77437226  0.74813430    -0.89500
H2353       H  0.56559871  0.71044826  0.73149302     0.34600
H2354       H  0.56704860  0.70898436  0.76023852     0.39700
H2355       H  0.66287978  0.76561691  0.74840473     0.39300
H2356       H  0.64552857  0.78345737  0.76351063     0.34200
C2357       C  0.26745711  0.25977295  0.37539239    -0.27500
C2358       C  0.28446650  0.25957618  0.39228203    -0.15600
C2359       C  0.28320351  0.27509464  0.41073274     0.35100
C2360       C  0.26645902  0.29248288  0.41035906    -0.27000
C2361       C  0.25101150  0.29423345  0.39202447    -0.16200
C2362       C  0.25081771  0.27708011  0.37496316     0.36100
N2363       N  0.23503150  0.27812095  0.35613831    -0.90400
H2364       H  0.26820284  0.24768218  0.36130525     0.17300
H2365       H  0.26614791  0.30529538  0.42379473     0.17200
N2366       N  0.29940660  0.27359431  0.42925014    -0.89500
H2367       H  0.22581610  0.26278594  0.35588567     0.34600
H2368       H  0.24447346  0.27926120  0.34087174     0.39700
H2369       H  0.29688596  0.25783948  0.43755007     0.39300
H2370       H  0.29608848  0.28634203  0.44142847     0.34200
C2371       C  0.34826561  0.27549126  0.47261213    -0.27500
C2372       C  0.36527224  0.25837409  0.47414131    -0.15600
C2373       C  0.37911049  0.25696567  0.49389594     0.35100
C2374       C  0.37780894  0.27443866  0.51019863    -0.27000
C2375       C  0.36315027  0.29337056  0.50684761    -0.16200
C2376       C  0.34703193  0.29301138  0.48889077     0.36100
N2377       N  0.33007736  0.31082186  0.48658893    -0.90400
H2378       H  0.33695645  0.27621091  0.45789991     0.17300
H2379       H  0.38981920  0.27412482  0.52437679     0.17200
N2380       N  0.39582488  0.23899630  0.49659398    -0.89500
H2381       H  0.31388765  0.30318894  0.48689041     0.34600
H2382       H  0.33221955  0.31865418  0.47052711     0.39700
H2383       H  0.39252490  0.23052586  0.51212470     0.39300
H2384       H  0.41203986  0.24648573  0.49767837     0.34200
C2385       C  0.39463585  0.11936474  0.25411587    -0.27500
C2386       C  0.38166148  0.13141747  0.23723452    -0.15600
C2387       C  0.36421156  0.14640757  0.24491864     0.35100
C2388       C  0.36067971  0.14940961  0.26862359    -0.27000
C2389       C  0.37433184  0.13810659  0.28546510    -0.16200
C2390       C  0.39126411  0.12257176  0.27781812     0.36100
N2391       N  0.40576460  0.11030337  0.29352971    -0.90400
H2392       H  0.40807393  0.10750361  0.24896267     0.17300
H2393       H  0.34731547  0.16134124  0.27383285     0.17200
N2394       N  0.35015055  0.15924739  0.22925731    -0.89500
H2395       H  0.39540230  0.10042260  0.30437610     0.34600
H2396       H  0.41471408  0.12218170  0.30340670     0.39700
H2397       H  0.34153566  0.14772380  0.21869317     0.39300
H2398       H  0.36075945  0.16959089  0.21910688     0.34200
C2399       C  0.49158844  0.01484556  0.13751097    -0.27500
C2400       C  0.49467017  0.03447249  0.12379490    -0.15600
C2401       C  0.51328631  0.03518577  0.10831094     0.35100
C2402       C  0.53061672  0.01860691  0.10993990    -0.27000
C2403       C  0.52956049  0.00112189  0.12656554    -0.16200
C2404       C  0.50882610  0.99802339  0.13897292     0.36100
N2405       N  0.50520269  0.97891924  0.15410767    -0.90400
H2406       H  0.47675428  0.01351746  0.14870063     0.17300
H2407       H  0.54572762  0.02046649  0.09923117     0.17200
N2408       N  0.51531924  0.05338509  0.09176583    -0.89500
H2409       H  0.51705048  0.97957231  0.16752560     0.34600
H2410       H  0.50761252  0.96376568  0.14483667     0.39700
H2411       H  0.51632748  0.04605408  0.07542872     0.39300
H2412       H  0.53069988  0.06199034  0.09478460     0.34200
C2413       C  0.51243151  0.13802780  0.00686358    -0.27500
C2414       C  0.53010022  0.12161058  0.00811332    -0.15600
C2415       C  0.52891109  0.10374456  0.02449659     0.35100
C2416       C  0.51151076  0.10429645  0.04109597    -0.27000
C2417       C  0.49548448  0.12236270  0.04157391    -0.16200
C2418       C  0.49526148  0.13875757  0.02368138     0.36100
N2419       N  0.47894576  0.15728176  0.02355965    -0.90400
H2420       H  0.51308847  0.15164895  0.99412555     0.17300
H2421       H  0.51131869  0.09135930  0.05454916     0.17200
N2422       N  0.54600807  0.08581658  0.02491677    -0.89500
H2423       H  0.47008641  0.15689127  0.00797093     0.34600
H2424       H  0.48795135  0.17272375  0.02428350     0.39700
H2425       H  0.54454265  0.07659816  0.00962671     0.39300
H2426       H  0.54280066  0.07423323  0.03830712     0.34200
C2427       C  0.34565587  0.63010042  0.25379899    -0.27500
C2428       C  0.36360605  0.62713697  0.23748310    -0.15600
C2429       C  0.38609622  0.62419387  0.24602890     0.35100
C2430       C  0.38988421  0.62355143  0.27000745    -0.27000
C2431       C  0.37181525  0.62619361  0.28611036    -0.16200
C2432       C  0.34947962  0.62972865  0.27775720     0.36100
N2433       N  0.33054057  0.63146949  0.29356542    -0.90400
H2434       H  0.32821598  0.63249823  0.24786326     0.17300
H2435       H  0.40715403  0.62036184  0.27617911     0.17200
N2436       N  0.40539212  0.62193543  0.23093288    -0.89500
H2437       H  0.31503783  0.63312979  0.28472212     0.34600
H2438       H  0.33256103  0.64662720  0.30287300     0.39700
H2439       H  0.40605154  0.63653000  0.22042119     0.39300
H2440       H  0.40288329  0.60756452  0.22058854     0.34200
C2441       C  0.25115952  0.61685742  0.02333988    -0.27500
C2442       C  0.24990749  0.63421704  0.03993017    -0.15600
C2443       C  0.23308385  0.65169372  0.03769034     0.35100
C2444       C  0.21623298  0.64982639  0.02093259    -0.27000
C2445       C  0.21570319  0.63082106  0.00635298    -0.16200
C2446       C  0.23417846  0.61497479  0.00641325     0.36100
N2447       N  0.23472089  0.59608496  0.99061463    -0.90400
H2448       H  0.26436994  0.60372140  0.02460372     0.17300
H2449       H  0.20256465  0.66255644  0.02033658     0.17200
N2450       N  0.23218347  0.67116421  0.05255413    -0.89500
H2451       H  0.24881773  0.58535322  0.99388750     0.34600
H2452       H  0.23729385  0.60293664  0.97417873     0.39700
H2453       H  0.24838474  0.67877181  0.05281362     0.39300
H2454       H  0.22780233  0.66569354  0.06906444     0.34200
C2455       C  0.38695434  0.26492744  0.61174267    -0.27500
C2456       C  0.37184886  0.28160554  0.62128717    -0.15600
C2457       C  0.35378932  0.27385059  0.63532039     0.35100
C2458       C  0.35097165  0.25024206  0.63904798    -0.27000
C2459       C  0.36557589  0.23339431  0.62899358    -0.16200
C2460       C  0.38403640  0.24115636  0.61540562     0.36100
N2461       N  0.39986710  0.22549374  0.60487650    -0.90400
H2462       H  0.40109340  0.27035754  0.60092537     0.17300
H2463       H  0.33662343  0.24517222  0.64975125     0.17200
N2464       N  0.33744728  0.28934411  0.64535425    -0.89500
H2465       H  0.39071043  0.21465386  0.59403544     0.34600
H2466       H  0.40756251  0.21558564  0.61779469     0.39700
H2467       H  0.32955562  0.29878253  0.63220679     0.39300
H2468       H  0.34615958  0.30057825  0.65615347     0.34200
C2469       C  0.35471235  0.12084441  0.51831330    -0.27500
C2470       C  0.36526801  0.13452815  0.53527222    -0.15600
C2471       C  0.37992281  0.15224133  0.52781717     0.35100
C2472       C  0.38299569  0.15623866  0.50415717    -0.27000
C2473       C  0.37175289  0.14308114  0.48716076    -0.16200
C2474       C  0.35773889  0.12486802  0.49466278     0.36100
N2475       N  0.34602448  0.11035567  0.47884499    -0.90400
H2476       H  0.34352429  0.10693012  0.52340877     0.17300
H2477       H  0.39411010  0.17023288  0.49912926     0.17200
N2478       N  0.39141807  0.16689776  0.54368771    -0.89500
H2479       H  0.35821932  0.10241123  0.46826577     0.34600
H2480       H  0.33511822  0.12051809  0.46876185     0.39700
H2481       H  0.40194981  0.15677862  0.55417052     0.39300
H2482       H  0.37907632  0.17514089  0.55389944     0.34200
C2483       C  0.25216137  0.02122367  0.63559322    -0.27500
C2484       C  0.24913586  0.04073794  0.64928675    -0.15600
C2485       C  0.22973248  0.04221755  0.66376423     0.35100
C2486       C  0.21211575  0.02622926  0.66155184    -0.27000
C2487       C  0.21359676  0.00855623  0.64530870    -0.16200
C2488       C  0.23463988  0.00511809  0.63340090     0.36100
N2489       N  0.23846364  0.98630149  0.61808438    -0.90400
H2490       H  0.26739663  0.01938458  0.62501566     0.17300
H2491       H  0.19669646  0.02845563  0.67179632     0.17200
N2492       N  0.22739049  0.06041640  0.68009810    -0.89500
H2493       H  0.22696831  0.98756216  0.60439819     0.34600
H2494       H  0.23584183  0.97095252  0.62708455     0.39700
H2495       H  0.22542538  0.05304702  0.69639732     0.39300
H2496       H  0.21239112  0.06964310  0.67631819     0.34200
C2497       C  0.49019401  0.24477337  0.38584439    -0.27500
C2498       C  0.47223443  0.24741193  0.37002285    -0.15600
C2499       C  0.47418360  0.26386154  0.35237444     0.35100
C2500       C  0.49153828  0.28024545  0.35355756    -0.27000
C2501       C  0.50691715  0.28028639  0.37207547    -0.16200
C2502       C  0.50751313  0.26114726  0.38717025     0.36100
N2503       N  0.52405809  0.25879418  0.40520058    -0.90400
H2504       H  0.48946816  0.23147287  0.39891071     0.17300
H2505       H  0.49170059  0.29410635  0.34108182     0.17200
N2506       N  0.45788154  0.26474631  0.33400249    -0.89500
H2507       H  0.52196233  0.27230850  0.41676679     0.34600
H2508       H  0.54049941  0.25934093  0.39797239     0.39700
H2509       H  0.46687290  0.26309685  0.31851964     0.39300
H2510       H  0.44996680  0.28092226  0.33408596     0.34200
C2511       C  0.48623686  0.40809402  0.47511309    -0.27500
C2512       C  0.50257548  0.39044928  0.47694760    -0.15600
C2513       C  0.50423604  0.37778789  0.49755381     0.35100
C2514       C  0.48689310  0.38011507  0.51412247    -0.27000
C2515       C  0.46815139  0.39492192  0.51019803    -0.16200
C2516       C  0.46904080  0.41047206  0.49164625     0.36100
N2517       N  0.45193194  0.42795700  0.48887118    -0.90400
H2518       H  0.48562027  0.41887771  0.45987709     0.17300
H2519       H  0.48705637  0.36875471  0.52892103     0.17200
N2520       N  0.52231006  0.36132717  0.50094542    -0.89500
H2521       H  0.44386742  0.42550271  0.47305539     0.34600
H2522       H  0.46036312  0.44373889  0.48822805     0.39700
H2523       H  0.51492071  0.34520072  0.50343206     0.39300
H2524       H  0.53104368  0.36565767  0.51596801     0.34200
C2525       C  0.59998366  0.36773641  0.50356248    -0.27500
C2526       C  0.61348545  0.37908266  0.48665198    -0.15600
C2527       C  0.63200452  0.39239694  0.49424045     0.35100
C2528       C  0.63593077  0.39472451  0.51812136    -0.27000
C2529       C  0.62160794  0.38441137  0.53499853    -0.16200
C2530       C  0.60371741  0.37031544  0.52741040     0.36100
N2531       N  0.58901272  0.35908590  0.54376831    -0.90400
H2532       H  0.58584373  0.35706441  0.49824464     0.17300
H2533       H  0.65006749  0.40534883  0.52356744     0.17200
N2534       N  0.64661267  0.40374325  0.47788304    -0.89500
H2535       H  0.57701836  0.34885333  0.53538277     0.34600
H2536       H  0.57962084  0.37182831  0.55230706     0.39700
H2537       H  0.65988793  0.41227664  0.48626296     0.39300
H2538       H  0.63678539  0.41642430  0.46968292     0.34200
C2539       C  0.47101815  0.46156651  0.40500835    -0.27500
C2540       C  0.49151096  0.46597693  0.39313696    -0.15600
C2541       C  0.49535946  0.48813662  0.38409792     0.35100
C2542       C  0.47742631  0.50442834  0.38470814    -0.27000
C2543       C  0.45591057  0.49898572  0.39425880    -0.16200
C2544       C  0.45317036  0.47748364  0.40543349     0.36100
N2545       N  0.43234283  0.47066689  0.41662968    -0.90400
H2546       H  0.46809204  0.44493508  0.41289151     0.17300
H2547       H  0.48000688  0.52109649  0.37680761     0.17200
N2548       N  0.51700064  0.49380035  0.37368737    -0.89500
H2549       H  0.41930982  0.46920632  0.40446385     0.34600
H2550       H  0.42793920  0.48289463  0.42900309     0.39700
H2551       H  0.52944060  0.49310446  0.38658799     0.39300
H2552       H  0.51678271  0.51070921  0.36754561     0.34200
C2553       C  0.50697617  0.63589259  0.41138408    -0.27500
C2554       C  0.52362952  0.62427030  0.39773602    -0.15600
C2555       C  0.51563771  0.60959019  0.38042602     0.35100
C2556       C  0.49167590  0.60662812  0.37752922    -0.27000
C2557       C  0.47510807  0.61799012  0.39145451    -0.16200
C2558       C  0.48308240  0.63279202  0.40861804     0.36100
N2559       N  0.46706006  0.64419528  0.42361290    -0.90400
H2560       H  0.51256012  0.64731123  0.42484043     0.17300
H2561       H  0.48592399  0.59511435  0.36421772     0.17200
N2562       N  0.53168919  0.59733366  0.36617832    -0.89500
H2563       H  0.47567582  0.65472584  0.43519106     0.34600
H2564       H  0.45891826  0.63157018  0.43346688     0.39700
H2565       H  0.54032063  0.60944801  0.35611147     0.39300
H2566       H  0.52304613  0.58664171  0.35477418     0.34200
C2567       C  0.51445145  0.60569247  0.54443147    -0.27500
C2568       C  0.49850378  0.62369052  0.54376279    -0.15600
C2569       C  0.49738849  0.63820930  0.52426455     0.35100
C2570       C  0.51460218  0.63638241  0.50747274    -0.27000
C2571       C  0.53257531  0.62043082  0.51006535    -0.16200
C2572       C  0.53146909  0.60394978  0.52772542     0.36100
N2573       N  0.54824330  0.58605857  0.52947380    -0.90400
H2574       H  0.51477183  0.59386957  0.55886683     0.17300
H2575       H  0.51500709  0.64870056  0.49346649     0.17200
N2576       N  0.48010969  0.65587508  0.52247959    -0.89500
H2577       H  0.53957991  0.57039869  0.52927723     0.34600
H2578       H  0.55628377  0.58756575  0.54543058     0.39700
H2579       H  0.46430566  0.64774051  0.52053352     0.39300
H2580       H  0.48256609  0.66574496  0.50762252     0.34200
C2581       C  0.63388718  0.51582661  0.50878888    -0.27500
C2582       C  0.61805926  0.53394537  0.51110404    -0.15600
C2583       C  0.60045634  0.53232209  0.52773593     0.35100
C2584       C  0.60070062  0.51431120  0.54339471    -0.27000
C2585       C  0.61852048  0.49814907  0.54320781    -0.16200
C2586       C  0.63434933  0.49778886  0.52480544     0.36100
N2587       N  0.65190468  0.48036226  0.52349041    -0.90400
H2588       H  0.64702857  0.51660005  0.49560286     0.17300
H2589       H  0.58797721  0.51411665  0.55703784     0.17200
N2590       N  0.58258378  0.54908141  0.52976974    -0.89500
H2591       H  0.66279596  0.48337020  0.50950231     0.34600
H2592       H  0.64376214  0.46477162  0.52026448     0.39700
H2593       H  0.57526530  0.55157042  0.51356355     0.39300
H2594       H  0.58963795  0.56440379  0.53558456     0.34200
C2595       C  0.63357586  0.50957720  0.40565995    -0.27500
C2596       C  0.61951933  0.52685172  0.39568707    -0.15600
C2597       C  0.60117133  0.51998904  0.38168752     0.35100
C2598       C  0.59705125  0.49647882  0.37852446    -0.27000
C2599       C  0.61069125  0.47915333  0.38913427    -0.16200
C2600       C  0.62936028  0.48610925  0.40268426     0.36100
N2601       N  0.64412507  0.46992875  0.41402577    -0.90400
H2602       H  0.64792857  0.51427516  0.41640996     0.17300
H2603       H  0.58260946  0.49183679  0.36787736     0.17200
N2604       N  0.58598442  0.53630484  0.37108771    -0.89500
H2605       H  0.65173988  0.45941256  0.40164726     0.34600
H2606       H  0.63420821  0.45985934  0.42514153     0.39700
H2607       H  0.59561286  0.54688981  0.36022594     0.39300
H2608       H  0.57844911  0.54635878  0.38391789     0.34200
C2609       C  0.61937829  0.73986810  0.50434139    -0.27500
C2610       C  0.63490407  0.72156534  0.50742760    -0.15600
C2611       C  0.65098934  0.72246099  0.52535719     0.35100
C2612       C  0.64923038  0.73973430  0.54169845    -0.27000
C2613       C  0.63136306  0.75585052  0.54066869    -0.16200
C2614       C  0.61731520  0.75699085  0.52103528     0.36100
N2615       N  0.59975358  0.77419959  0.51888006    -0.90400
H2616       H  0.60729076  0.73975142  0.49022985     0.17300
H2617       H  0.66075269  0.73934405  0.55627827     0.17200
N2618       N  0.66836546  0.70518614  0.52782267    -0.89500
H2619       H  0.58391947  0.76595864  0.51769773     0.34600
H2620       H  0.60253622  0.78316036  0.50352190     0.39700
H2621       H  0.66613606  0.69725885  0.54382917     0.39300
H2622       H  0.68422948  0.71345637  0.52790831     0.34200
C2623       C  0.36199434  0.26220433  0.15876849    -0.27500
C2624       C  0.37488835  0.27894164  0.14656125    -0.15600
C2625       C  0.39060050  0.27123232  0.12989383     0.35100
C2626       C  0.39371433  0.24738516  0.12656106    -0.27000
C2627       C  0.38149345  0.23061650  0.13940191    -0.16200
C2628       C  0.36517769  0.23832358  0.15549152     0.36100
N2629       N  0.35220294  0.22207265  0.16877980    -0.90400
H2630       H  0.34957369  0.26771133  0.17150724     0.17300
H2631       H  0.40619032  0.24192068  0.11385737     0.17200
N2632       N  0.40384024  0.28745540  0.11684221    -0.89500
H2633       H  0.34052108  0.23054933  0.17949398     0.34600
H2634       H  0.36368895  0.21337084  0.17959039     0.39700
H2635       H  0.39245377  0.29657448  0.10628299     0.39300
H2636       H  0.41529262  0.27896001  0.10588530     0.34200
C2637       C  0.38569314  0.49793349  0.15880307    -0.27500
C2638       C  0.37437563  0.48107374  0.14549552    -0.15600
C2639       C  0.36096826  0.48870237  0.12683729     0.35100
C2640       C  0.35845480  0.51236331  0.12260008    -0.27000
C2641       C  0.36872666  0.52922639  0.13667239    -0.16200
C2642       C  0.38299933  0.52161955  0.15468305     0.36100
N2643       N  0.39444507  0.53736194  0.16950180    -0.90400
H2644       H  0.39647540  0.49279615  0.17308765     0.17300
H2645       H  0.34765394  0.51754265  0.10834096     0.17200
N2646       N  0.34924122  0.47302679  0.11218208    -0.89500
H2647       H  0.38209993  0.54765808  0.17758187     0.34600
H2648       H  0.40507407  0.54778287  0.15946600     0.39700
H2649       H  0.33791200  0.46334839  0.12217183     0.39300
H2650       H  0.36138102  0.46203628  0.10470076     0.34200
C2651       C  0.38253108  0.50905530  0.27709500    -0.27500
C2652       C  0.36471767  0.50878003  0.29339012    -0.15600
C2653       C  0.34727478  0.49227567  0.29164275     0.35100
C2654       C  0.34926771  0.47482811  0.27539829    -0.27000
C2655       C  0.36833001  0.47368319  0.26074570    -0.16200
C2656       C  0.38450603  0.49156735  0.26076220     0.36100
N2657       N  0.40379904  0.49119631  0.24544004    -0.90400
H2658       H  0.39591726  0.52183390  0.27805710     0.17300
H2659       H  0.33640230  0.46147764  0.27503102     0.17200
N2660       N  0.32790133  0.49269952  0.30685047    -0.89500
H2661       H  0.41878711  0.49091634  0.25528178     0.34600
H2662       H  0.40357405  0.50642348  0.23584859     0.39700
H2663       H  0.32748143  0.47711541  0.31582937     0.39300
H2664       H  0.31303460  0.49389299  0.29687636     0.34200
C2665       C  0.24382739  0.38781123  0.27390796    -0.27500
C2666       C  0.24833620  0.40051762  0.29379878    -0.15600
C2667       C  0.26791885  0.41449048  0.29449946     0.35100
C2668       C  0.28456958  0.41225587  0.27736142    -0.27000
C2669       C  0.28197672  0.39625710  0.25959507    -0.16200
C2670       C  0.26049952  0.38542087  0.25679351     0.36100
N2671       N  0.25554713  0.37076852  0.23778479    -0.90400
H2672       H  0.22824187  0.37786304  0.27259622     0.17300
H2673       H  0.30036908  0.42181695  0.27902712     0.17200
N2674       N  0.27162251  0.42996021  0.31317632    -0.89500
H2675       H  0.26648230  0.35649326  0.23831758     0.34600
H2676       H  0.25823993  0.37996221  0.22254181     0.39700
H2677       H  0.27351390  0.44649230  0.30637465     0.39300
H2678       H  0.28701609  0.42534707  0.32122844     0.34200
C2679       C  0.37101661  0.26597543  0.25216718    -0.27500
C2680       C  0.38588601  0.28460988  0.25494688    -0.15600
C2681       C  0.40388058  0.28307038  0.27099879     0.35100
C2682       C  0.40396531  0.26495579  0.28680895    -0.27000
C2683       C  0.38628463  0.24876056  0.28688384    -0.16200
C2684       C  0.37100661  0.24796428  0.26819217     0.36100
N2685       N  0.35425927  0.23017235  0.26648480    -0.90400
H2686       H  0.35779407  0.26650511  0.23911322     0.17300
H2687       H  0.41653727  0.26482000  0.30049791     0.17200
N2688       N  0.42093614  0.30073304  0.27227484    -0.89500
H2689       H  0.35651922  0.22204811  0.25065019     0.34600
H2690       H  0.33795364  0.23779953  0.26659844     0.39700
H2691       H  0.43021616  0.30046731  0.25686880     0.39300
H2692       H  0.43266438  0.29717384  0.28539942     0.34200
C2693       C  0.46913363  0.34906651  0.27330187    -0.27500
C2694       C  0.46931161  0.36682780  0.25700065    -0.15600
C2695       C  0.48890616  0.38084791  0.25475634     0.35100
C2696       C  0.50611288  0.37923736  0.27145064    -0.27000
C2697       C  0.50384617  0.36400247  0.29001140    -0.16200
C2698       C  0.48643085  0.34732373  0.28977972     0.36100
N2699       N  0.48548308  0.32977194  0.30721646    -0.90400
H2700       H  0.45461493  0.33758441  0.27426532     0.17300
H2701       H  0.52005098  0.39145216  0.27116461     0.17200
N2702       N  0.49035749  0.39797578  0.23693967    -0.89500
H2703       H  0.50006702  0.31938866  0.30524713     0.34600
H2704       H  0.47128595  0.31918427  0.30479082     0.39700
H2705       H  0.49164793  0.38935066  0.22127769     0.39300
H2706       H  0.50539845  0.40752325  0.23854438     0.34200
C2707       C  0.23780226  0.49781714  0.12248545    -0.27500
C2708       C  0.21890195  0.50058438  0.13730225    -0.15600
C2709       C  0.21969153  0.51729458  0.15458119     0.35100
C2710       C  0.23769699  0.53275515  0.15502632    -0.27000
C2711       C  0.25469000  0.53235193  0.13804342    -0.16200
C2712       C  0.25589922  0.51369334  0.12267858     0.36100
N2713       N  0.27438155  0.51184737  0.10637697    -0.90400
H2714       H  0.23762098  0.48445529  0.10960717     0.17300
H2715       H  0.23721061  0.54641318  0.16762027     0.17200
N2716       N  0.20166969  0.51945190  0.17111780    -0.89500
H2717       H  0.27222060  0.49746260  0.09595008     0.34600
H2718       H  0.28947033  0.50898127  0.11568341     0.39700
H2719       H  0.19461022  0.53594107  0.16948846     0.39300
H2720       H  0.20906101  0.51806507  0.18742120     0.34200
C2721       C  0.24372272  0.39808846  0.11978452    -0.27500
C2722       C  0.22677723  0.38592963  0.13240661    -0.15600
C2723       C  0.23428985  0.36951962  0.14861047     0.35100
C2724       C  0.25787352  0.36689704  0.15292292    -0.27000
C2725       C  0.27470385  0.38038453  0.14163792    -0.16200
C2726       C  0.26732660  0.39558669  0.12423667     0.36100
N2727       N  0.28315545  0.40929816  0.11136676    -0.90400
H2728       H  0.23863729  0.41042286  0.10673206     0.17300
H2729       H  0.26294571  0.35454394  0.16596226     0.17200
N2730       N  0.21852369  0.35576483  0.16150223    -0.89500
H2731       H  0.29467824  0.39834898  0.10298822     0.34600
H2732       H  0.29225575  0.41960507  0.12280031     0.39700
H2733       H  0.20857785  0.34641342  0.14998205     0.39300
H2734       H  0.20780717  0.36662306  0.17102116     0.34200
C2735       C  0.14965704  0.37024489  0.26515829    -0.27500
C2736       C  0.13481763  0.38092971  0.28140059    -0.15600
C2737       C  0.11549645  0.39285134  0.27307505     0.35100
C2738       C  0.11248540  0.39531461  0.24909469    -0.27000
C2739       C  0.12821770  0.38601598  0.23290667    -0.16200
C2740       C  0.14667144  0.37275291  0.24117971     0.36100
N2741       N  0.16281088  0.36262372  0.22541965    -0.90400
H2742       H  0.16435042  0.36043413  0.27112098     0.17300
H2743       H  0.09788095  0.40519309  0.24300257     0.17200
N2744       N  0.09937865  0.40300593  0.28881766    -0.89500
H2745       H  0.17522709  0.35306833  0.23429497     0.34600
H2746       H  0.17150718  0.37598867  0.21717329     0.39700
H2747       H  0.09137130  0.38961699  0.29770619     0.39300
H2748       H  0.08642332  0.41175564  0.27988868     0.34200
C2749       C  0.12450158  0.49162421  0.01651894    -0.27500
C2750       C  0.10978167  0.49419312  0.03545623    -0.15600
C2751       C  0.09189712  0.51057714  0.03463466     0.35100
C2752       C  0.09206628  0.52710895  0.01714487    -0.27000
C2753       C  0.10968887  0.52722951  0.00070566    -0.16200
C2754       C  0.12463048  0.50816371  0.99902796     0.36100
N2755       N  0.14133266  0.50662230  0.98097329    -0.90400
H2756       H  0.13763372  0.47834322  0.01648431     0.17300
H2757       H  0.07976645  0.54114420  0.01765574     0.17200
N2758       N  0.07477842  0.51141187  0.05245985    -0.89500
H2759       H  0.13887994  0.49110656  0.97239489     0.34600
H2760       H  0.15765438  0.50617152  0.98839759     0.39700
H2761       H  0.06549261  0.49613368  0.05170594     0.39300
H2762       H  0.06306907  0.52476409  0.04941163     0.34200
C2763       C  0.02964348  0.51552810  0.10611252    -0.27500
C2764       C  0.03048160  0.49954158  0.12417884    -0.15600
C2765       C  0.01285726  0.49938718  0.14091208     0.35100
C2766       C  0.99657087  0.51720402  0.14084707    -0.27000
C2767       C  0.99785415  0.53500534  0.12460861    -0.16200
C2768       C  0.01350651  0.53334562  0.10624634     0.36100
N2769       N  0.01374759  0.55026266  0.08829629    -0.90400
H2770       H  0.04265138  0.51525823  0.09276020     0.17300
H2771       H  0.98412751  0.51820577  0.15468455     0.17200
N2772       N  0.01269444  0.48250356  0.15902236    -0.89500
H2773       H  0.01135539  0.54186820  0.07265655     0.34600
H2774       H  0.02998208  0.55779888  0.08794128     0.39700
H2775       H  0.00920358  0.46663634  0.15152439     0.39300
H2776       H  0.99932256  0.48573699  0.17060871     0.34200
C2777       C  0.25483249  0.38685805  0.60441655    -0.27500
C2778       C  0.27158855  0.37739583  0.61954864    -0.15600
C2779       C  0.26377990  0.36463681  0.63856681     0.35100
C2780       C  0.23989507  0.36158311  0.64183894    -0.27000
C2781       C  0.22324116  0.37065267  0.62642685    -0.16200
C2782       C  0.23098046  0.38369649  0.60765209     0.36100
N2783       N  0.21479073  0.39287513  0.59139180    -0.90400
H2784       H  0.26029670  0.39673182  0.58959714     0.17300
H2785       H  0.23425983  0.35147097  0.65644399     0.17200
N2786       N  0.27992746  0.35477176  0.65447580    -0.89500
H2787       H  0.22330261  0.40141955  0.57806349     0.34600
H2788       H  0.20493639  0.40528424  0.59988286     0.39700
H2789       H  0.28915153  0.34204072  0.64575018     0.39300
H2790       H  0.27134561  0.34648522  0.66793164     0.34200
C2791       C  0.23764489  0.22351820  0.60165554    -0.27500
C2792       C  0.25400881  0.22561791  0.61921443    -0.15600
C2793       C  0.25503726  0.24637539  0.63170005     0.35100
C2794       C  0.23765075  0.26271808  0.62886985    -0.27000
C2795       C  0.21898986  0.25842517  0.61437372    -0.16200
C2796       C  0.22009930  0.23982315  0.59911866     0.36100
N2797       N  0.20283156  0.23679287  0.58193416    -0.90400
H2798       H  0.23734704  0.20827850  0.59104440     0.17300
H2799       H  0.23751169  0.27756267  0.64002320     0.17200
N2800       N  0.27220056  0.25065132  0.64867935    -0.89500
H2801       H  0.19502799  0.22090335  0.58472247     0.34600
H2802       H  0.21095152  0.23627833  0.56589956     0.39700
H2803       H  0.28837234  0.24922553  0.64096575     0.39300
H2804       H  0.27070085  0.23852682  0.66187940     0.34200
C2805       C  0.12772092  0.39367825  0.49844862    -0.27500
C2806       C  0.12841555  0.37556085  0.48240545    -0.15600
C2807       C  0.12800076  0.35291283  0.49054724     0.35100
C2808       C  0.12622811  0.34868555  0.51429558    -0.27000
C2809       C  0.12554834  0.36676383  0.53044147    -0.16200
C2810       C  0.12635668  0.38953917  0.52234654     0.36100
N2811       N  0.12518216  0.40832375  0.53821760    -0.90400
H2812       H  0.12888725  0.41121785  0.49226350     0.17300
H2813       H  0.12572182  0.33100411  0.52017943     0.17200
N2814       N  0.13063346  0.33420886  0.47486826    -0.89500
H2815       H  0.12515364  0.42399895  0.52938081     0.34600
H2816       H  0.14020855  0.40791103  0.54798716     0.39700
H2817       H  0.11616159  0.32382300  0.47630410     0.39300
H2818       H  0.14498617  0.32453439  0.47985662     0.34200
C2819       C  0.01638982  0.21202634  0.65216361    -0.27500
C2820       C  0.99843137  0.21420496  0.63629825    -0.15600
C2821       C  0.99569129  0.23495541  0.62400291     0.35100
C2822       C  0.01263605  0.25186156  0.62560315    -0.27000
C2823       C  0.03222096  0.24821388  0.63921453    -0.16200
C2824       C  0.03326469  0.22880853  0.65375091     0.36100
N2825       N  0.05189011  0.22556550  0.66949649    -0.90400
H2826       H  0.01816204  0.19658221  0.66250731     0.17300
H2827       H  0.01124483  0.26704278  0.61484319     0.17200
N2828       N  0.97660150  0.23841968  0.60889546    -0.89500
H2829       H  0.06022334  0.21013177  0.66545235     0.34600
H2830       H  0.04503365  0.22395645  0.68604225     0.39700
H2831       H  0.98296601  0.24135201  0.59233630     0.39300
H2832       H  0.96778870  0.25320793  0.61414566     0.34200
C2833       C  0.60408823  0.39064135  0.26725412    -0.27500
C2834       C  0.61672163  0.37882903  0.28451108    -0.15600
C2835       C  0.63434173  0.36376962  0.27751318     0.35100
C2836       C  0.63767315  0.35959927  0.25381490    -0.27000
C2837       C  0.62393645  0.37023174  0.23664830    -0.16200
C2838       C  0.60735498  0.38643188  0.24359348     0.36100
N2839       N  0.59332509  0.39799129  0.22680833    -0.90400
H2840       H  0.59080558  0.40275666  0.27220517     0.17300
H2841       H  0.65088970  0.34743996  0.24877788     0.17200
N2842       N  0.64829019  0.35219602  0.29434203    -0.89500
H2843       H  0.58231891  0.40983878  0.23473519     0.34600
H2844       H  0.58282271  0.38569637  0.21926155     0.39700
H2845       H  0.65793366  0.36467488  0.30270207     0.39300
H2846       H  0.66008281  0.34117281  0.28636009     0.34200
C2847       C  0.51003165  0.25771767  0.13478981    -0.27500
C2848       C  0.52983762  0.25348104  0.14790239    -0.15600
C2849       C  0.53019800  0.23478539  0.16335121     0.35100
C2850       C  0.51258074  0.21875942  0.16274712    -0.27000
C2851       C  0.49457953  0.22100873  0.14696592    -0.16200
C2852       C  0.49213758  0.24164407  0.13431443     0.36100
N2853       N  0.47245913  0.24551186  0.11993158    -0.90400
H2854       H  0.50924612  0.27261536  0.12358905     0.17300
H2855       H  0.51399860  0.20356811  0.17348680     0.17200
N2856       N  0.54897892  0.23129873  0.17885860    -0.89500
H2857       H  0.47370840  0.26129966  0.11139670     0.34600
H2858       H  0.45809900  0.24673027  0.13069214     0.39700
H2859       H  0.55649956  0.21533892  0.17532312     0.39300
H2860       H  0.54237834  0.23069240  0.19557571     0.34200
C2861       C  0.50674222  0.36032293  0.12365147    -0.27500
C2862       C  0.52356143  0.37073467  0.13770072    -0.15600
C2863       C  0.51614139  0.38599056  0.15472578     0.35100
C2864       C  0.49245688  0.38958614  0.15820778    -0.27000
C2865       C  0.47554887  0.37806102  0.14513639    -0.16200
C2866       C  0.48295974  0.36378374  0.12716622     0.36100
N2867       N  0.46650784  0.35221135  0.11309226    -0.90400
H2868       H  0.51213041  0.34878662  0.11010199     0.17300
H2869       H  0.48737586  0.40106625  0.17192247     0.17200
N2870       N  0.53242684  0.39712442  0.16919512    -0.89500
H2871       H  0.47481408  0.34170255  0.10110995     0.34600
H2872       H  0.45766483  0.36475627  0.10365339     0.39700
H2873       H  0.52888786  0.39250397  0.18621997     0.39300
H2874       H  0.52993876  0.41485571  0.16758969     0.34200
C2875       C  0.64996786  0.22438066  0.02159606    -0.27500
C2876       C  0.63190793  0.22440429  0.00573252    -0.15600
C2877       C  0.61575427  0.24259564  0.00574693     0.35100
C2878       C  0.61605667  0.25835123  0.02387780    -0.27000
C2879       C  0.63210581  0.25603231  0.04168931    -0.16200
C2880       C  0.65018449  0.24006829  0.03961420     0.36100
N2881       N  0.66816818  0.23903761  0.05633164    -0.90400
H2882       H  0.66297566  0.21099218  0.02111089     0.17300
H2883       H  0.60253255  0.27116325  0.02509655     0.17200
N2884       N  0.59796972  0.24384613  0.98870627    -0.89500
H2885       H  0.68380276  0.24134006  0.04779044     0.34600
H2886       H  0.66829617  0.22260640  0.06366505     0.39700
H2887       H  0.60586566  0.24728495  0.97291815     0.39300
H2888       H  0.58689333  0.25767528  0.99193347     0.34200
C2889       C  0.24152266  0.13142973  0.76671336    -0.27500
C2890       C  0.22314698  0.11665774  0.76218303    -0.15600
C2891       C  0.22489613  0.10106734  0.74394405     0.35100
C2892       C  0.24309037  0.10273926  0.72865513    -0.27000
C2893       C  0.25869340  0.12072515  0.73041806    -0.16200
C2894       C  0.25925524  0.13390517  0.75071651     0.36100
N2895       N  0.27628431  0.15101174  0.75475393    -0.90400
H2896       H  0.24086466  0.14293616  0.78127233     0.17300
H2897       H  0.24333645  0.09157501  0.71381002     0.17200
N2898       N  0.20754355  0.08443062  0.73990940    -0.89500
H2899       H  0.27479806  0.16388652  0.74227654     0.34600
H2900       H  0.29248667  0.14326809  0.75353153     0.39700
H2901       H  0.21574662  0.06842315  0.73950329     0.39300
H2902       H  0.20061176  0.08759143  0.72362863     0.34200
C2903       C  0.15543936  0.01291691  0.72847348    -0.27500
C2904       C  0.13779677  0.99687733  0.73033064    -0.15600
C2905       C  0.12545634  0.99501633  0.75121382     0.35100
C2906       C  0.12788686  0.01218505  0.76763914    -0.27000
C2907       C  0.14182415  0.03122378  0.76303730    -0.16200
C2908       C  0.15741042  0.03026392  0.74463383     0.36100
N2909       N  0.17424358  0.04763511  0.74137992    -0.90400
H2910       H  0.16612960  0.01356917  0.71319504     0.17300
H2911       H  0.11666497  0.01202306  0.78251932     0.17200
N2912       N  0.10895318  0.97737630  0.75541266    -0.89500
H2913       H  0.17134389  0.05536780  0.72538173     0.34600
H2914       H  0.19019448  0.03932257  0.74074145     0.39700
H2915       H  0.11702879  0.96142966  0.75330495     0.39300
H2916       H  0.09558030  0.97906678  0.74359996     0.34200
C2917       C  0.13694412  0.23633247  0.75669572    -0.27500
C2918       C  0.11932949  0.22010923  0.75679739    -0.15600
C2919       C  0.10017505  0.22330119  0.74234829     0.35100
C2920       C  0.10060658  0.24050554  0.72573684    -0.27000
C2921       C  0.11978301  0.25462440  0.72347198    -0.16200
C2922       C  0.13739476  0.25375043  0.74008163     0.36100
N2923       N  0.15664093  0.26902920  0.73878361    -0.90400
H2924       H  0.15136980  0.23427639  0.76825454     0.17300
H2925       H  0.08664162  0.24176451  0.71350410     0.17200
N2926       N  0.08047135  0.20888857  0.74362444    -0.89500
H2927       H  0.16871762  0.26501141  0.75144689     0.34600
H2928       H  0.15054256  0.28553437  0.74252625     0.39700
H2929       H  0.07446803  0.20878924  0.76056904     0.39300
H2930       H  0.08546830  0.19231009  0.73914067     0.34200
C2931       C  0.01802111  0.14933729  0.71572313    -0.27500
C2932       C  0.99924542  0.13491186  0.71930121    -0.15600
C2933       C  0.99654169  0.12392836  0.74081978     0.35100
C2934       C  0.01464429  0.12472657  0.75675161    -0.27000
C2935       C  0.03506547  0.13638021  0.75147713    -0.16200
C2936       C  0.03594237  0.15006859  0.73145719     0.36100
N2937       N  0.05540452  0.16397938  0.72631342    -0.90400
H2938       H  0.01973210  0.15889949  0.69978145     0.17300
H2939       H  0.01338872  0.11491486  0.77256169     0.17200
N2940       N  0.97625996  0.11091948  0.74586463    -0.89500
H2941       H  0.04945432  0.18077920  0.72374013     0.34600
H2942       H  0.06254416  0.15831840  0.71082125     0.39700
H2943       H  0.96245335  0.12245720  0.74639899     0.39300
H2944       H  0.97734667  0.10348196  0.76223892     0.34200
C2945       C  0.72892222  0.71258779  0.60846426    -0.27500
C2946       C  0.74765154  0.71445081  0.62341565    -0.15600
C2947       C  0.75061071  0.73520960  0.63570289     0.35100
C2948       C  0.73335635  0.75201970  0.63502837    -0.27000
C2949       C  0.71316325  0.74854257  0.62250425    -0.16200
C2950       C  0.71174287  0.72942895  0.60783315     0.36100
N2951       N  0.69252788  0.72658775  0.59282998    -0.90400
H2952       H  0.72687437  0.69737373  0.59803879     0.17300
H2953       H  0.73506588  0.76706485  0.64575166     0.17200
N2954       N  0.77016340  0.73938782  0.64990104    -0.89500
H2955       H  0.68453671  0.71109316  0.59701008     0.34600
H2956       H  0.69874083  0.72533571  0.57600672     0.39700
H2957       H  0.78502167  0.73772698  0.63991407     0.39300
H2958       H  0.77047253  0.72741593  0.66332667     0.34200
C2959       C  0.74171193  0.52512538  0.66137207    -0.27500
C2960       C  0.75612853  0.52634525  0.64213450    -0.15600
C2961       C  0.75585543  0.50852579  0.62581836     0.35100
C2962       C  0.73901815  0.49154880  0.62743697    -0.27000
C2963       C  0.72240490  0.49246172  0.64489300    -0.16200
C2964       C  0.72491644  0.50820598  0.66292766     0.36100
N2965       N  0.70965285  0.50785735  0.68221669    -0.90400
H2966       H  0.74240052  0.53827916  0.67446268     0.17300
H2967       H  0.73760106  0.47911865  0.61373019     0.17200
N2968       N  0.77119926  0.50867875  0.60654730    -0.89500
H2969       H  0.70163084  0.52394329  0.68312282     0.34600
H2970       H  0.71950683  0.50566381  0.69706146     0.39700
H2971       H  0.76139429  0.50932693  0.59153400     0.39300
H2972       H  0.78040662  0.49320092  0.60662889     0.34200
C2973       C  0.75062345  0.63363185  0.74328914    -0.27500
C2974       C  0.74927050  0.61694949  0.72604264    -0.15600
C2975       C  0.73220325  0.59993801  0.72741964     0.35100
C2976       C  0.71493679  0.60191006  0.74408891    -0.27000
C2977       C  0.71472860  0.62021622  0.75962413    -0.16200
C2978       C  0.73344960  0.63542749  0.76009848     0.36100
N2979       N  0.73433100  0.65365861  0.77649525    -0.90400
H2980       H  0.76400587  0.64645180  0.74273103     0.17300
H2981       H  0.70099214  0.58969341  0.74426293     0.17200
N2982       N  0.73192353  0.58131064  0.71130121    -0.89500
H2983       H  0.73480663  0.66925589  0.76752975     0.34600
H2984       H  0.74962649  0.65195536  0.78572226     0.39700
H2985       H  0.71806739  0.57043386  0.71456135     0.39300
H2986       H  0.74681307  0.57153801  0.71394264     0.34200
C2987       C  0.74014923  0.65021455  0.53952745    -0.27500
C2988       C  0.75636813  0.63240867  0.53847911    -0.15600
C2989       C  0.75750817  0.61840858  0.51879704     0.35100
C2990       C  0.73967867  0.61987717  0.50264933    -0.27000
C2991       C  0.72121914  0.63515793  0.50602912    -0.16200
C2992       C  0.72256843  0.65168671  0.52345344     0.36100
N2993       N  0.70549277  0.66928510  0.52564362    -0.90400
H2994       H  0.73991173  0.66189732  0.55397804     0.17300
H2995       H  0.73922925  0.60774084  0.48861873     0.17200
N2996       N  0.77551386  0.60161700  0.51621170    -0.89500
H2997       H  0.71387567  0.68508412  0.52494724     0.34600
H2998       H  0.69791909  0.66765743  0.54187621     0.39700
H2999       H  0.79091781  0.61054500  0.51429526     0.39300
H3000       H  0.77331165  0.59229533  0.50108666     0.34200
C3001       C  0.75511018  0.24115665  0.13305577    -0.27500
C3002       C  0.75144980  0.22194761  0.11915248    -0.15600
C3003       C  0.73296168  0.22210204  0.10363273     0.35100
C3004       C  0.71609868  0.23906261  0.10553030    -0.27000
C3005       C  0.71749079  0.25585767  0.12261011    -0.16200
C3006       C  0.73826326  0.25822597  0.13496732     0.36100
N3007       N  0.74219801  0.27662666  0.15067113    -0.90400
H3008       H  0.76986043  0.24177491  0.14431753     0.17300
H3009       H  0.70094247  0.23786593  0.09486772     0.17200
N3010       N  0.73039963  0.20425467  0.08699737    -0.89500
H3011       H  0.73047993  0.27551778  0.16424539     0.34600
H3012       H  0.73991045  0.29219610  0.14193453     0.39700
H3013       H  0.72954485  0.21190366  0.07072846     0.39300
H3014       H  0.71479255  0.19602200  0.09009457     0.34200
C3015       C  0.73637207  0.12772054  0.00047217    -0.27500
C3016       C  0.71782045  0.14292709  0.00323849    -0.15600
C3017       C  0.71908769  0.16069426  0.01949387     0.35100
C3018       C  0.73716925  0.16046036  0.03524712    -0.27000
C3019       C  0.75361994  0.14276285  0.03490672    -0.16200
C3020       C  0.75421302  0.12729705  0.01639253     0.36100
N3021       N  0.77145455  0.10968778  0.01494442    -0.90400
H3022       H  0.73589303  0.11445881  0.98749076     0.17300
H3023       H  0.73726464  0.17286475  0.04904692     0.17200
N3024       N  0.70131673  0.17789884  0.02088532    -0.89500
H3025       H  0.77964755  0.11120874  0.99901111     0.34600
H3026       H  0.76331717  0.09374509  0.01553716     0.39700
H3027       H  0.70161718  0.18728528  0.00551701     0.39300
H3028       H  0.70475152  0.18951108  0.03404731     0.34200
C3029       C  0.73834053  0.03126440  0.15300537    -0.27500
C3030       C  0.75176822  0.03329297  0.13316454    -0.15600
C3031       C  0.75102834  0.01605914  0.11628203     0.35100
C3032       C  0.73443883  0.99886438  0.11805501    -0.27000
C3033       C  0.71873175  0.99895932  0.13637030    -0.16200
C3034       C  0.72192285  0.01406907  0.15480039     0.36100
N3035       N  0.70768265  0.01278017  0.17481394    -0.90400
H3036       H  0.73951337  0.04396699  0.16649720     0.17300
H3037       H  0.73249827  0.98688270  0.10402049     0.17200
N3038       N  0.76563594  0.01702871  0.09646369    -0.89500
H3039       H  0.69935094  0.02862236  0.17661487     0.34600
H3040       H  0.71833680  0.01034453  0.18906220     0.39700
H3041       H  0.75527290  0.01802048  0.08184871     0.39300
H3042       H  0.77503010  0.00168336  0.09571369     0.34200
C3043       C  0.13398716  0.49094963  0.35396338    -0.27500
C3044       C  0.12937841  0.48256266  0.37605171    -0.15600
C3045       C  0.12495872  0.49852902  0.39381228     0.35100
C3046       C  0.12494987  0.52235266  0.38925838    -0.27000
C3047       C  0.12942802  0.53078360  0.36713740    -0.16200
C3048       C  0.13399044  0.51467062  0.34930319     0.36100
N3049       N  0.13956749  0.52187221  0.32638347    -0.90400
H3050       H  0.13862899  0.47905355  0.34043291     0.17300
H3051       H  0.12083992  0.53423533  0.40295863     0.17200
N3052       N  0.12056521  0.49048858  0.41668721    -0.89500
H3053       H  0.15306446  0.53358981  0.32711986     0.34600
H3054       H  0.12528615  0.52986277  0.31901827     0.39700
H3055       H  0.10441157  0.49662578  0.42172730     0.39300
H3056       H  0.13281497  0.49763346  0.42755555     0.34200
C3057       C  0.25795743  0.63508587  0.39535793    -0.27500
C3058       C  0.27418802  0.63113707  0.37769705    -0.15600
C3059       C  0.26605363  0.62520875  0.35575840     0.35100
C3060       C  0.24234260  0.62374513  0.35186354    -0.27000
C3061       C  0.22611281  0.62744034  0.36956157    -0.16200
C3062       C  0.23411511  0.63343395  0.39143328     0.36100
N3063       N  0.21815614  0.63834046  0.40952614    -0.90400
H3064       H  0.26389938  0.63864104  0.41259726     0.17300
H3065       H  0.23649892  0.61954489  0.33473305     0.17200
N3066       N  0.28150479  0.61944852  0.33744113    -0.89500
H3067       H  0.22106007  0.65509553  0.41512356     0.34600
H3068       H  0.22164975  0.62715592  0.42320157     0.39700
H3069       H  0.29156175  0.60541259  0.34258032     0.39300
H3070       H  0.29231897  0.63343360  0.33456328     0.34200
C3071       C  0.23061027  0.59815842  0.22333745    -0.27500
C3072       C  0.24991602  0.61212583  0.22603836    -0.15600
C3073       C  0.25306752  0.62381277  0.24696810     0.35100
C3074       C  0.23475177  0.62498688  0.26262371    -0.27000
C3075       C  0.21379606  0.61437455  0.25770819    -0.16200
C3076       C  0.21251261  0.59915794  0.23905619     0.36100
N3077       N  0.19246793  0.58559965  0.23533313    -0.90400
H3078       H  0.22860158  0.58790840  0.20799126     0.17300
H3079       H  0.23627901  0.63570386  0.27769308     0.17200
N3080       N  0.27409833  0.63563503  0.25156707    -0.89500
H3081       H  0.19752529  0.56834005  0.23495480     0.34600
H3082       H  0.18575764  0.58986930  0.21921169     0.39700
H3083       H  0.28704726  0.62316766  0.25271558     0.39300
H3084       H  0.27334616  0.64370229  0.26756243     0.34200
C3085       C  0.14417749  0.54152461  0.23950331    -0.27500
C3086       C  0.12661588  0.54069522  0.25587413    -0.15600
C3087       C  0.11265066  0.52109449  0.25729975     0.35100
C3088       C  0.11480000  0.50399218  0.24050986    -0.27000
C3089       C  0.13044324  0.50647275  0.22224907    -0.16200
C3090       C  0.14613084  0.52487563  0.22266114     0.36100
N3091       N  0.16406471  0.52742604  0.20608894    -0.90400
H3092       H  0.15564249  0.55605936  0.23881997     0.17300
H3093       H  0.10304269  0.48966580  0.24088473     0.17200
N3094       N  0.09542627  0.51909440  0.27477450    -0.89500
H3095       H  0.15693163  0.53171488  0.19018685     0.34600
H3096       H  0.17285115  0.51177307  0.20503152     0.39700
H3097       H  0.09862976  0.50396970  0.28401627     0.39300
H3098       H  0.07948326  0.51752587  0.26675396     0.34200
C3099       C  0.01156153  0.66065423  0.22611097    -0.27500
C3100       C  0.99568272  0.64269822  0.22695828    -0.15600
C3101       C  0.99376098  0.62918929  0.24711105     0.35100
C3102       C  0.01003890  0.63183178  0.26453847    -0.27000
C3103       C  0.02806366  0.64743577  0.26193339    -0.16200
C3104       C  0.02773496  0.66320395  0.24352366     0.36100
N3105       N  0.04461121  0.68092111  0.24176552    -0.90400
H3106       H  0.01249824  0.67176364  0.21113715     0.17300
H3107       H  0.00989846  0.62011507  0.27905594     0.17200
N3108       N  0.97671578  0.61154773  0.24901321    -0.89500
H3109       H  0.03603250  0.69673395  0.24089091     0.34600
H3110       H  0.05364894  0.67868969  0.22637802     0.39700
H3111       H  0.96069466  0.61970195  0.24993142     0.39300
H3112       H  0.97862451  0.60235063  0.26437486     0.34200
C3113       C  0.13042620  0.76393493  0.24709224    -0.27500
C3114       C  0.11180121  0.76483226  0.23198482    -0.15600
C3115       C  0.09317559  0.74990767  0.23504696     0.35100
C3116       C  0.09518335  0.73188168  0.25088775    -0.27000
C3117       C  0.11537740  0.72898932  0.26360002    -0.16200
C3118       C  0.13260784  0.74580349  0.26264250     0.36100
N3119       N  0.15339846  0.74328287  0.27553403    -0.90400
H3120       H  0.14470414  0.77559602  0.24498268     0.17300
H3121       H  0.08169161  0.71921576  0.25217773     0.17200
N3122       N  0.07303384  0.75228182  0.22105912    -0.89500
H3123       H  0.15543094  0.75799411  0.28552222     0.34600
H3124       H  0.16713947  0.74236615  0.26396513     0.39700
H3125       H  0.06555999  0.76822869  0.22478202     0.39300
H3126       H  0.06097927  0.73987400  0.22566052     0.34200
C3127       C  0.11035224  0.75018195  0.02907269    -0.27500
C3128       C  0.12714138  0.74948533  0.04625763    -0.15600
C3129       C  0.14416757  0.73212687  0.04596029     0.35100
C3130       C  0.14293314  0.71476228  0.02948125    -0.27000
C3131       C  0.12511223  0.71449962  0.01336598    -0.16200
C3132       C  0.10901898  0.73269332  0.01278149     0.36100
N3133       N  0.09038959  0.73272861  0.99676827    -0.90400
H3134       H  0.09718690  0.76342833  0.02921782     0.17300
H3135       H  0.15550324  0.70094872  0.02970819     0.17200
N3136       N  0.16218559  0.73180099  0.06280411    -0.89500
H3137       H  0.09108152  0.74796026  0.98721026     0.34600
H3138       H  0.07500373  0.73273195  0.00606655     0.39700
H3139       H  0.17210210  0.74647957  0.06019373     0.39300
H3140       H  0.17310969  0.71769064  0.06034956     0.34200
C3141       C  0.21421951  0.73922837  0.11236943    -0.27500
C3142       C  0.21491231  0.75582958  0.12964272    -0.15600
C3143       C  0.23381233  0.75640894  0.14467557     0.35100
C3144       C  0.25013213  0.73862358  0.14395248    -0.27000
C3145       C  0.24763901  0.72033409  0.12854695    -0.16200
C3146       C  0.23037777  0.72148489  0.11171989     0.36100
N3147       N  0.22861874  0.70423752  0.09443316    -0.90400
H3148       H  0.20019647  0.73912508  0.10016588     0.17300
H3149       H  0.26371773  0.73829125  0.15662774     0.17200
N3150       N  0.23567722  0.77397113  0.16168893    -0.89500
H3151       H  0.22954276  0.71237550  0.07840519     0.34600
H3152       H  0.21244840  0.69668296  0.09589909     0.39700
H3153       H  0.25137646  0.78223897  0.15927213     0.39300
H3154       H  0.23591596  0.76610818  0.17787919     0.34200
C3155       C  0.01032532  0.76000508  0.12752851    -0.27500
C3156       C  0.02809672  0.75810965  0.14366894    -0.15600
C3157       C  0.02735084  0.74056238  0.16035625     0.35100
C3158       C  0.01095916  0.72339171  0.15863815    -0.27000
C3159       C  0.99517865  0.72347125  0.14056997    -0.16200
C3160       C  0.99364580  0.74279554  0.12585412     0.36100
N3161       N  0.97641423  0.74408420  0.10826518    -0.90400
H3162       H  0.01045732  0.77388012  0.11505926     0.17300
H3163       H  0.01157247  0.70914020  0.17069151     0.17200
N3164       N  0.04379892  0.73952763  0.17854598    -0.89500
H3165       H  0.97840697  0.75896668  0.09834770     0.34600
H3166       H  0.96050236  0.74565835  0.11648238     0.39700
H3167       H  0.05268290  0.72390782  0.17739871     0.39300
H3168       H  0.03471849  0.73959907  0.19406479     0.34200
C3169       C  0.60672333  0.26048754  0.39544286    -0.27500
C3170       C  0.61612205  0.27728422  0.38044713    -0.15600
C3171       C  0.62880653  0.26961417  0.36137081     0.35100
C3172       C  0.63156693  0.24569167  0.35772285    -0.27000
C3173       C  0.62161873  0.22884366  0.37244087    -0.16200
C3174       C  0.60911597  0.23675141  0.39161720     0.36100
N3175       N  0.59831497  0.22125753  0.40737534    -0.90400
H3176       H  0.59681026  0.26581171  0.41029193     0.17300
H3177       H  0.64129068  0.24025933  0.34280920     0.17200
N3178       N  0.63831026  0.28593374  0.34543597    -0.89500
H3179       H  0.61091643  0.21051821  0.41446032     0.34600
H3180       H  0.58660523  0.21128788  0.39830584     0.39700
H3181       H  0.62461787  0.29448392  0.33746240     0.39300
H3182       H  0.64737963  0.27750284  0.33240706     0.34200
C3183       C  0.49081557  0.14374834  0.39958844    -0.27500
C3184       C  0.47431377  0.13789462  0.38276805    -0.15600
C3185       C  0.48228484  0.12946521  0.36160149     0.35100
C3186       C  0.50598556  0.12729377  0.35767378    -0.27000
C3187       C  0.52262803  0.13325234  0.37435869    -0.16200
C3188       C  0.51463529  0.14150902  0.39566846     0.36100
N3189       N  0.53010966  0.14766752  0.41362579    -0.90400
H3190       H  0.48513239  0.15060122  0.41593710     0.17300
H3191       H  0.51135170  0.12097814  0.34103246     0.17200
N3192       N  0.46685336  0.12385688  0.34339971    -0.89500
H3193       H  0.54077446  0.16071218  0.40752040     0.34600
H3194       H  0.54022201  0.13331482  0.41768588     0.39700
H3195       H  0.45709270  0.13844681  0.33933890     0.39300
H3196       H  0.45583702  0.11098809  0.34924992     0.34200
C3197       C  0.62385162  0.23954462  0.26702972    -0.27500
C3198       C  0.60962823  0.22050868  0.26375404    -0.15600
C3199       C  0.59316495  0.22106419  0.24612076     0.35100
C3200       C  0.59416397  0.23842141  0.22956692    -0.27000
C3201       C  0.61125484  0.25520494  0.23052870    -0.16200
C3202       C  0.62480970  0.25710461  0.25049138     0.36100
N3203       N  0.64083546  0.27556953  0.25298072    -0.90400
H3204       H  0.63580682  0.23969143  0.28124953     0.17300
H3205       H  0.58278720  0.23760146  0.21491008     0.17200
N3206       N  0.57635811  0.20333978  0.24416028    -0.89500
H3207       H  0.65003468  0.27382173  0.26829403     0.34600
H3208       H  0.63129503  0.29078113  0.25439295     0.39700
H3209       H  0.57846240  0.19544608  0.22818699     0.39300
H3210       H  0.56009886  0.21105784  0.24447651     0.34200
C3211       C  0.71167887  0.09949953  0.23874194    -0.27500
C3212       C  0.71444928  0.11473506  0.25716991    -0.15600
C3213       C  0.73555800  0.12637629  0.25947866     0.35100
C3214       C  0.75164425  0.12520860  0.24170040    -0.27000
C3215       C  0.74700891  0.11293236  0.22157582    -0.16200
C3216       C  0.72775553  0.09851192  0.22092194     0.36100
N3217       N  0.72386412  0.08368560  0.20176745    -0.90400
H3218       H  0.69618408  0.08942834  0.23725959     0.17300
H3219       H  0.76682273  0.13574732  0.24281741     0.17200
N3220       N  0.74069648  0.14060112  0.27875826    -0.89500
H3221       H  0.70809234  0.08816415  0.19440741     0.34600
H3222       H  0.72264575  0.06684906  0.20796029     0.39700
H3223       H  0.73901216  0.13082695  0.29377711     0.39300
H3224       H  0.72919420  0.15443659  0.27912460     0.34200
C3225       C  0.52836477  0.15304400  0.24608768    -0.27500
C3226       C  0.52765591  0.13618536  0.26335170    -0.15600
C3227       C  0.50793878  0.12218464  0.26534213     0.35100
C3228       C  0.49134606  0.12300243  0.24805196    -0.27000
C3229       C  0.49425192  0.13727746  0.22879965    -0.16200
C3230       C  0.51188434  0.15368284  0.22877670     0.36100
N3231       N  0.51382705  0.17026019  0.21060733    -0.90400
H3232       H  0.54273885  0.16471125  0.24495796     0.17300
H3233       H  0.47731828  0.11089498  0.24869056     0.17200
N3234       N  0.50491095  0.10596417  0.28365213    -0.89500
H3235       H  0.52980187  0.16800847  0.20265409     0.34600
H3236       H  0.51345125  0.18662755  0.21790147     0.39700
H3237       H  0.50574292  0.11470388  0.29924551     0.39300
H3238       H  0.51799829  0.09361843  0.28288239     0.34200
C3239       C  0.62148938  0.99636850  0.24799299    -0.27500
C3240       C  0.63649568  0.99940865  0.22930657    -0.15600
C3241       C  0.65288201  0.01699997  0.23007752     0.35100
C3242       C  0.65162638  0.03333996  0.24747054    -0.27000
C3243       C  0.63409298  0.03246911  0.26395655    -0.16200
C3244       C  0.62009606  0.01288689  0.26536800     0.36100
N3245       N  0.60326491  0.01058432  0.28320415    -0.90400
H3246       H  0.60930077  0.98240524  0.24807155     0.17300
H3247       H  0.66322920  0.04780771  0.24689018     0.17200
N3248       N  0.67002618  0.01910105  0.21257188    -0.89500
H3249       H  0.60648124  0.99516149  0.29193301     0.34600
H3250       H  0.58709664  0.00947770  0.27555471     0.39700
H3251       H  0.68609339  0.01864722  0.22052610     0.39300
H3252       H  0.66802899  0.03520194  0.20476154     0.34200
C3253       C  0.15034972  0.26476819  0.37282586    -0.27500
C3254       C  0.13660030  0.28169742  0.38386080    -0.15600
C3255       C  0.11790863  0.27421606  0.39723420     0.35100
C3256       C  0.11380145  0.25043665  0.39962365    -0.27000
C3257       C  0.12815455  0.23349070  0.38944815    -0.16200
C3258       C  0.14635517  0.24098369  0.37555287     0.36100
N3259       N  0.16127559  0.22464452  0.36474222    -0.90400
H3260       H  0.16475377  0.26993115  0.36223951     0.17300
H3261       H  0.09947334  0.24513322  0.41023704     0.17200
N3262       N  0.10338906  0.29059172  0.40875555    -0.89500
H3263       H  0.17799616  0.22762447  0.37042329     0.34600
H3264       H  0.16085474  0.22768219  0.34703002     0.39700
H3265       H  0.11324519  0.29846609  0.42143026     0.39300
H3266       H  0.09000255  0.28229916  0.41734747     0.34200
C3267       C  0.23180134  0.14724253  0.37652462    -0.27500
C3268       C  0.22507990  0.13126852  0.39314164    -0.15600
C3269       C  0.24268081  0.11868095  0.40485158     0.35100
C3270       C  0.26608540  0.12393125  0.40140952    -0.27000
C3271       C  0.27272842  0.14111047  0.38596429    -0.16200
C3272       C  0.25520159  0.15201193  0.37258870     0.36100
N3273       N  0.26094739  0.16809795  0.35481627    -0.90400
H3274       H  0.21884609  0.15656627  0.36686291     0.17300
H3275       H  0.27903463  0.11482031  0.41127805     0.17200
N3276       N  0.23698529  0.10043007  0.42040596    -0.89500
H3277       H  0.25288140  0.18375085  0.35851877     0.34600
H3278       H  0.25434586  0.16203956  0.33931881     0.39700
H3279       H  0.24374486  0.10432580  0.43653250     0.39300
H3280       H  0.24495407  0.08539189  0.41458250     0.34200
C3281       C  0.12110343  0.24692294  0.49725979    -0.27500
C3282       C  0.13576848  0.22788974  0.49970517    -0.15600
C3283       C  0.15286617  0.22814460  0.51664498     0.35100
C3284       C  0.15235334  0.24504590  0.53344988    -0.27000
C3285       C  0.13462357  0.26131900  0.53372975    -0.16200
C3286       C  0.12027618  0.26370863  0.51438533     0.36100
N3287       N  0.10349441  0.28173673  0.51305624    -0.90400
H3288       H  0.10844971  0.24744811  0.48365741     0.17300
H3289       H  0.16429812  0.24380041  0.54766088     0.17200
N3290       N  0.16943375  0.21006727  0.51818364    -0.89500
H3291       H  0.08726076  0.27426716  0.51209980     0.34600
H3292       H  0.10629783  0.29079617  0.49779131     0.39700
H3293       H  0.16722273  0.20235247  0.53427832     0.39300
H3294       H  0.18572623  0.21748004  0.51763482     0.34200
C3295       C  0.23110416  0.15091211  0.54586398    -0.27500
C3296       C  0.24877048  0.13469903  0.54415814    -0.15600
C3297       C  0.25022806  0.12051773  0.52459012     0.35100
C3298       C  0.23247466  0.12155885  0.50824828    -0.27000
C3299       C  0.21352339  0.13630795  0.51143877    -0.16200
C3300       C  0.21343027  0.15160740  0.53003558     0.36100
N3301       N  0.19513197  0.16764950  0.53347900    -0.90400
H3302       H  0.23016240  0.16247763  0.56038684     0.17300
H3303       H  0.23281442  0.10993225  0.49378075     0.17200
N3304       N  0.26881430  0.10437645  0.52197953    -0.89500
H3305       H  0.20259876  0.18385203  0.53473088     0.34600
H3306       H  0.18737711  0.16394337  0.54928638     0.39700
H3307       H  0.28385592  0.11382527  0.51973765     0.39300
H3308       H  0.26675494  0.09475403  0.50702108     0.34200
C3309       C  0.99195656  0.13688377  0.51845775    -0.27500
C3310       C  0.99226754  0.11723218  0.53252327    -0.15600
C3311       C  0.00791930  0.09927472  0.52766764     0.35100
C3312       C  0.02488810  0.10269125  0.51111655    -0.27000
C3313       C  0.02648337  0.12369112  0.49939701    -0.16200
C3314       C  0.00905836  0.14039273  0.50190954     0.36100
N3315       N  0.01005432  0.16174072  0.48943511    -0.90400
H3316       H  0.97966073  0.15052837  0.52176173     0.17300
H3317       H  0.03791073  0.08952832  0.50862344     0.17200
N3318       N  0.00748732  0.07778125  0.53968924    -0.89500
H3319       H  0.99675269  0.17275975  0.49451286     0.34600
H3320       H  0.00717983  0.15806105  0.47212273     0.39700
H3321       H  0.99093919  0.07107730  0.53858408     0.39300
H3322       H  0.01143208  0.08058734  0.55690466     0.34200
C3323       C  0.09281556  0.04046321  0.52314931    -0.27500
C3324       C  0.11127497  0.04054204  0.50762663    -0.15600
C3325       C  0.12734159  0.02227836  0.50792814     0.35100
C3326       C  0.12621288  0.00603807  0.52566464    -0.27000
C3327       C  0.10957090  0.00782027  0.54306081    -0.16200
C3328       C  0.09175662  0.02428481  0.54086082     0.36100
N3329       N  0.07262767  0.02525883  0.55636474    -0.90400
H3330       H  0.07989769  0.05394421  0.52241165     0.17300
H3331       H  0.13952450  0.99299622  0.52680454     0.17200
N3332       N  0.14581887  0.02127619  0.49151075    -0.89500
H3333       H  0.07830713  0.02985369  0.57267864     0.34600
H3334       H  0.06515925  0.00900461  0.55716962     0.39700
H3335       H  0.13860092  0.01783867  0.47548376     0.39300
H3336       H  0.15691784  0.00754450  0.49514702     0.34200
C3337       C  0.88679308  0.75620935  0.61277255    -0.27500
C3338       C  0.87302720  0.77317200  0.62373931    -0.15600
C3339       C  0.85571573  0.76562876  0.63871304     0.35100
C3340       C  0.85186719  0.74185677  0.64163745    -0.27000
C3341       C  0.86495126  0.72485023  0.62990401    -0.16200
C3342       C  0.88293663  0.73235226  0.61557821     0.36100
N3343       N  0.89700892  0.71592798  0.60361055    -0.90400
H3344       H  0.90048009  0.76155180  0.60135695     0.17300
H3345       H  0.83807692  0.73677335  0.65305334     0.17200
N3346       N  0.84156385  0.78192527  0.65057412    -0.89500
H3347       H  0.90986110  0.72423186  0.59422544     0.34600
H3348       H  0.88661184  0.70773359  0.59160600     0.39700
H3349       H  0.84314765  0.77879517  0.66820278     0.39300
H3350       H  0.82449188  0.77901673  0.64599424     0.34200
C3351       C  0.75733490  0.88439605  0.60955130    -0.27500
C3352       C  0.77399124  0.87022201  0.62047387    -0.15600
C3353       C  0.76641323  0.85264583  0.63514241     0.35100
C3354       C  0.74264494  0.84953838  0.63836797    -0.27000
C3355       C  0.72593995  0.86340855  0.62708881    -0.16200
C3356       C  0.73354632  0.88124542  0.61271376     0.36100
N3357       N  0.71728600  0.89580421  0.60102875    -0.90400
H3358       H  0.76286411  0.89810360  0.59822583     0.17300
H3359       H  0.73722128  0.83573336  0.64961578     0.17200
N3360       N  0.78269195  0.83768163  0.64629844    -0.89500
H3361       H  0.72574066  0.90754696  0.59037870     0.34600
H3362       H  0.70872132  0.90549685  0.61350358     0.39700
H3363       H  0.79098661  0.82812554  0.63353902     0.39300
H3364       H  0.77427433  0.82584770  0.65688123     0.34200
C3365       C  0.99283512  0.86705267  0.61470065    -0.27500
C3366       C  0.97548536  0.88134008  0.62432301    -0.15600
C3367       C  0.98231348  0.90014445  0.63757929     0.35100
C3368       C  0.00598050  0.90409972  0.64093016    -0.27000
C3369       C  0.02338531  0.89002871  0.63096695    -0.16200
C3370       C  0.01649841  0.87115792  0.61782664     0.36100
N3371       N  0.03337933  0.85633396  0.60749641    -0.90400
H3372       H  0.98794846  0.85246100  0.60440089     0.17300
H3373       H  0.01077696  0.91872490  0.65119865     0.17200
N3374       N  0.96539435  0.91548475  0.64711296    -0.89500
H3375       H  0.02547096  0.84362706  0.59775730     0.34600
H3376       H  0.04204073  0.84783071  0.62079592     0.39700
H3377       H  0.95716349  0.92377311  0.63342657     0.39300
H3378       H  0.97326329  0.92834251  0.65671758     0.34200
C3379       C  0.86142838  0.99246418  0.61124353    -0.27500
C3380       C  0.87358236  0.97569593  0.62432761    -0.15600
C3381       C  0.88792130  0.98350048  0.64203183     0.35100
C3382       C  0.89045934  0.00723180  0.64552878    -0.27000
C3383       C  0.87926640  0.02398308  0.63162679    -0.16200
C3384       C  0.86418098  0.01619349  0.61456850     0.36100
N3385       N  0.85203799  0.03179083  0.59981101    -0.90400
H3386       H  0.84998041  0.98720387  0.59765302     0.17300
H3387       H  0.90198979  0.01255498  0.65902811     0.17200
N3388       N  0.90062088  0.96793135  0.65634123    -0.89500
H3389       H  0.86399313  0.04181442  0.59093714     0.34600
H3390       H  0.84180265  0.04250372  0.60998758     0.39700
H3391       H  0.91144604  0.95803071  0.64592054     0.39300
H3392       H  0.88903572  0.95711463  0.66471803     0.34200
C3393       C  0.84457989  0.11865300  0.27411761    -0.27500
C3394       C  0.86718329  0.11833059  0.28202215    -0.15600
C3395       C  0.88519586  0.11889296  0.26555756     0.35100
C3396       C  0.88038264  0.11963035  0.24173786    -0.27000
C3397       C  0.85771521  0.11978615  0.23377341    -0.16200
C3398       C  0.83970079  0.11922621  0.25039860     0.36100
N3399       N  0.81618808  0.11880131  0.24328243    -0.90400
H3400       H  0.83057805  0.11731857  0.28634581     0.17300
H3401       H  0.89441434  0.12063588  0.22952820     0.17200
N3402       N  0.90857732  0.11886037  0.27307061    -0.89500
H3403       H  0.80785562  0.13302188  0.25046306     0.34600
H3404       H  0.80863002  0.10397582  0.25000460     0.39700
H3405       H  0.91638201  0.13368250  0.26664635     0.39300
H3406       H  0.91688733  0.10465172  0.26582946     0.34200
C3407       C  0.76426287  0.13420652  0.37542530    -0.27500
C3408       C  0.77187543  0.11157558  0.37880252    -0.15600
C3409       C  0.75511209  0.09396286  0.38039071     0.35100
C3410       C  0.73153357  0.09921323  0.37873113    -0.27000
C3411       C  0.72398570  0.12173150  0.37505815    -0.16200
C3412       C  0.74056471  0.13945438  0.37358702     0.36100
N3413       N  0.73318348  0.16282297  0.37014575    -0.90400
H3414       H  0.77676102  0.14786713  0.37460583     0.17300
H3415       H  0.71916077  0.08540505  0.37915182     0.17200
N3416       N  0.76193074  0.07043423  0.38314201    -0.89500
H3417       H  0.74730126  0.17379725  0.36940460     0.34600
H3418       H  0.72358189  0.16763348  0.38455913     0.39700
H3419       H  0.75538815  0.06107280  0.36938028     0.39300
H3420       H  0.75442630  0.06427904  0.39826557     0.34200
C3421       C  0.99129166  0.10871508  0.37197945    -0.27500
C3422       C  0.97396862  0.12068640  0.38442398    -0.15600
C3423       C  0.98118545  0.13766723  0.39994471     0.35100
C3424       C  0.00484364  0.14173297  0.40297530    -0.27000
C3425       C  0.02217318  0.12920555  0.39103715    -0.16200
C3426       C  0.01490626  0.11265594  0.37512262     0.36100
N3427       N  0.03096846  0.09916395  0.36222113    -0.90400
H3428       H  0.98656833  0.09563653  0.35974641     0.17300
H3429       H  0.00963199  0.15472631  0.41527989     0.17200
N3430       N  0.96508428  0.15074777  0.41323243    -0.89500
H3431       H  0.04136080  0.09000774  0.37371117     0.34600
H3432       H  0.04122042  0.11025159  0.35251126     0.39700
H3433       H  0.95535248  0.13939881  0.42321738     0.39300
H3434       H  0.95416178  0.15953507  0.40198489     0.34200
C3435       C  0.85900391  0.10573511  0.49988071    -0.27500
C3436       C  0.87065362  0.11965375  0.48349535    -0.15600
C3437       C  0.88305202  0.13854445  0.49149555     0.35100
C3438       C  0.88476382  0.14208781  0.51541629    -0.27000
C3439       C  0.87498941  0.12677888  0.53174324    -0.16200
C3440       C  0.86118528  0.10895275  0.52375150     0.36100
N3441       N  0.85063041  0.09332536  0.53970475    -0.90400
H3442       H  0.84872679  0.09146195  0.49415683     0.17300
H3443       H  0.89503090  0.15629143  0.52136262     0.17200
N3444       N  0.89451028  0.15355065  0.47557772    -0.89500
H3445       H  0.84173654  0.08053861  0.53097253     0.34600
H3446       H  0.83836364  0.10261907  0.54903400     0.39700
H3447       H  0.90764611  0.14409529  0.46771680     0.39300
H3448       H  0.90246842  0.16695763  0.48431020     0.34200
C3449       C  0.87331824  0.00601702  0.49618657    -0.27500
C3450       C  0.88866022  0.00355481  0.47767139    -0.15600
C3451       C  0.90592800  0.98635879  0.47885939     0.35100
C3452       C  0.90505519  0.96998078  0.49632743    -0.27000
C3453       C  0.88719630  0.97013973  0.51247558    -0.16200
C3454       C  0.87244023  0.98943897  0.51376345     0.36100
N3455       N  0.85553289  0.99127884  0.53171548    -0.90400
H3456       H  0.86070802  0.01978200  0.49601592     0.17300
H3457       H  0.91729433  0.95589347  0.49603866     0.17200
N3458       N  0.92408813  0.98449629  0.46230184    -0.89500
H3459       H  0.84557025  0.00613992  0.52958390     0.34600
H3460       H  0.86433532  0.99319353  0.54721404     0.39700
H3461       H  0.93194289  0.00049784  0.46059268     0.39300
H3462       H  0.91741783  0.97944950  0.44651412     0.34200
C3463       C  0.13627464  0.87023398  0.25012151    -0.27500
C3464       C  0.11857926  0.87499974  0.23408132    -0.15600
C3465       C  0.09691807  0.88150368  0.24258559     0.35100
C3466       C  0.09347551  0.88313762  0.26658808    -0.27000
C3467       C  0.11110632  0.87823762  0.28270032    -0.16200
C3468       C  0.13279011  0.87163547  0.27417088     0.36100
N3469       N  0.15125877  0.86663512  0.28975853    -0.90400
H3470       H  0.15293120  0.86473103  0.24379828     0.17300
H3471       H  0.07659394  0.88807186  0.27274601     0.17200
N3472       N  0.07815546  0.88517604  0.22699868    -0.89500
H3473       H  0.16631026  0.86278283  0.28067954     0.34600
H3474       H  0.14693771  0.85175044  0.29884437     0.39700
H3475       H  0.08194660  0.89968547  0.21710022     0.39300
H3476       H  0.06307015  0.88899364  0.23603794     0.34200
C3477       C  0.13465001  0.77349839  0.37024249    -0.27500
C3478       C  0.11450487  0.77994799  0.38177866    -0.15600
C3479       C  0.10020829  0.76198434  0.39048590     0.35100
C3480       C  0.10590415  0.73867547  0.38690196    -0.27000
C3481       C  0.12544903  0.73231805  0.37449206    -0.16200
C3482       C  0.14021476  0.75010112  0.36655639     0.36100
N3483       N  0.16104269  0.74453657  0.35462041    -0.90400
H3484       H  0.14607318  0.78664377  0.36377457     0.17300
H3485       H  0.09432102  0.72550702  0.39304013     0.17200
N3486       N  0.07935959  0.76711010  0.40259577    -0.89500
H3487       H  0.17473107  0.75158352  0.36369955     0.34600
H3488       H  0.16045985  0.75236785  0.33842222     0.39700
H3489       H  0.08023017  0.75939308  0.41883749     0.39300
H3490       H  0.06573840  0.75976895  0.39365858     0.34200
C3491       C  0.11520506  0.99841913  0.36827982    -0.27500
C3492       C  0.12194234  0.98216410  0.38525933    -0.15600
C3493       C  0.13121618  0.99047941  0.40582123     0.35100
C3494       C  0.13250275  0.01427500  0.40938525    -0.27000
C3495       C  0.12459996  0.03067562  0.39297312    -0.16200
C3496       C  0.11643137  0.02231914  0.37186061     0.36100
N3497       N  0.10899919  0.03748487  0.35389697    -0.90400
H3498       H  0.10801892  0.99246368  0.35224405     0.17300
H3499       H  0.13925227  0.01984036  0.42573570     0.17200
N3500       N  0.13834630  0.97529419  0.42390881    -0.89500
H3501       H  0.12265302  0.04820504  0.34949060     0.34600
H3502       H  0.09545355  0.04756688  0.36012352     0.39700
H3503       H  0.15115435  0.96441041  0.41748537     0.39300
H3504       H  0.12431754  0.96534508  0.42894290     0.34200
C3505       C  0.00998223  0.99847023  0.38496242    -0.27500
C3506       C  0.00769356  0.98003194  0.40040569    -0.15600
C3507       C  0.98957003  0.98018913  0.41645132     0.35100
C3508       C  0.97174805  0.99603393  0.41380369    -0.27000
C3509       C  0.97195017  0.01183914  0.39558273    -0.16200
C3510       C  0.99216546  0.01465539  0.38246346     0.36100
N3511       N  0.99377545  0.03254506  0.36544610    -0.90400
H3512       H  0.02446259  0.99896792  0.37325478     0.17300
H3513       H  0.95683533  0.99464278  0.42486647     0.17200
N3514       N  0.98833534  0.96325077  0.43436664    -0.89500
H3515       H  0.00954623  0.03165484  0.35686595     0.34600
H3516       H  0.99353949  0.04822145  0.37413320     0.39700
H3517       H  0.97314420  0.95403026  0.43232913     0.39300
H3518       H  0.98739511  0.97179647  0.45009786     0.34200
C3519       C  0.10679594  0.87114376  0.50211361    -0.27500
C3520       C  0.11907545  0.88384036  0.48524976    -0.15600
C3521       C  0.13502953  0.90010683  0.49293762     0.35100
C3522       C  0.13758735  0.90386246  0.51666822    -0.27000
C3523       C  0.12435434  0.89201929  0.53341406    -0.16200
C3524       C  0.10905553  0.87514887  0.52574840     0.36100
N3525       N  0.09490138  0.86240680  0.54132649    -0.90400
H3526       H  0.09454134  0.85826420  0.49697419     0.17300
H3527       H  0.14973009  0.91678435  0.52196507     0.17200
N3528       N  0.14833227  0.91356436  0.47722638    -0.89500
H3529       H  0.08473090  0.87395113  0.55063389     0.34600
H3530       H  0.10552093  0.85334278  0.55268613     0.39700
H3531       H  0.13711712  0.92294253  0.46671566     0.39300
H3532       H  0.15802997  0.90242145  0.46698557     0.34200
C3533       C  0.99110424  0.87413406  0.51828172    -0.27500
C3534       C  0.97222991  0.88910688  0.51641548    -0.15600
C3535       C  0.97317216  0.90774099  0.50101159     0.35100
C3536       C  0.99096084  0.90877683  0.48497469    -0.27000
C3537       C  0.00774799  0.89143365  0.48416112    -0.16200
C3538       C  0.00911340  0.87517488  0.50223984     0.36100
N3539       N  0.02753565  0.85863984  0.50313871    -0.90400
H3540       H  0.99081100  0.86030579  0.53080472     0.17300
H3541       H  0.99046042  0.92207145  0.47187443     0.17200
N3542       N  0.95539623  0.92486852  0.50071908    -0.89500
H3543       H  0.02541395  0.84746377  0.51709112     0.34600
H3544       H  0.04267733  0.86765209  0.50616834     0.39700
H3545       H  0.94795059  0.92500775  0.48439360     0.39300
H3546       H  0.96298126  0.94085685  0.50332199     0.34200
C3547       C  0.76804150  0.84663327  0.47448798    -0.27500
C3548       C  0.75049751  0.86323760  0.47537988    -0.15600
C3549       C  0.74824360  0.87698555  0.49529928     0.35100
C3550       C  0.76535184  0.87607605  0.51200589    -0.27000
C3551       C  0.78483042  0.86214525  0.50896653    -0.16200
C3552       C  0.78520942  0.84595730  0.49113522     0.36100
N3553       N  0.80349049  0.82950631  0.48927106    -0.90400
H3554       H  0.76944833  0.83519583  0.45993719     0.17300
H3555       H  0.76442918  0.88801903  0.52620257     0.17200
N3556       N  0.72990049  0.89317247  0.49842536    -0.89500
H3557       H  0.81162087  0.83190094  0.47340786     0.34600
H3558       H  0.79625089  0.81312751  0.48936828     0.39700
H3559       H  0.71432434  0.88446446  0.49735987     0.39300
H3560       H  0.73078402  0.90571468  0.48557422     0.34200
C3561       C  0.65636885  0.87183003  0.49934577    -0.27500
C3562       C  0.63891966  0.86806897  0.48287563    -0.15600
C3563       C  0.61690080  0.86222013  0.49099064     0.35100
C3564       C  0.61291762  0.86038710  0.51480905    -0.27000
C3565       C  0.63030254  0.86455425  0.53118763    -0.16200
C3566       C  0.65232683  0.87027304  0.52309836     0.36100
N3567       N  0.67110358  0.87387772  0.53845909    -0.90400
H3568       H  0.67354799  0.87615149  0.49376513     0.17300
H3569       H  0.59591161  0.85558702  0.52059687     0.17200
N3570       N  0.59817812  0.85845681  0.47563630    -0.89500
H3571       H  0.67335843  0.85909516  0.54848717     0.34600
H3572       H  0.66689955  0.88757775  0.54925154     0.39700
H3573       H  0.60257044  0.84491198  0.46472393     0.39300
H3574       H  0.59569081  0.87331626  0.46577186     0.34200
C3575       C  0.63564932  0.75893735  0.36858769    -0.27500
C3576       C  0.63156123  0.77530735  0.38606263    -0.15600
C3577       C  0.62593076  0.76744261  0.40817636     0.35100
C3578       C  0.62485117  0.74382366  0.41244677    -0.27000
C3579       C  0.62922895  0.72729068  0.39514251    -0.16200
C3580       C  0.63455279  0.73517546  0.37285925     0.36100
N3581       N  0.63890799  0.71966311  0.35432890    -0.90400
H3582       H  0.64049610  0.76470219  0.35152431     0.17300
H3583       H  0.62080227  0.73843735  0.42982872     0.17200
N3584       N  0.62235443  0.78292590  0.42691167    -0.89500
H3585       H  0.62447326  0.70929679  0.35224377     0.34600
H3586       H  0.65289830  0.70924549  0.35871996     0.39700
H3587       H  0.60879674  0.79394401  0.42272090     0.39300
H3588       H  0.63721912  0.79270235  0.42904951     0.34200
C3589       C  0.61848762  0.00820906  0.35966717    -0.27500
C3590       C  0.62945217  0.02498847  0.37340378    -0.15600
C3591       C  0.64434027  0.01692093  0.39078699     0.35100
C3592       C  0.64806003  0.99305430  0.39367870    -0.27000
C3593       C  0.63737490  0.97637509  0.37961619    -0.16200
C3594       C  0.62224948  0.98443836  0.36249452     0.36100
N3595       N  0.61091290  0.96906859  0.34721070    -0.90400
H3596       H  0.60689308  0.01349628  0.34609539     0.17300
H3597       H  0.65979312  0.98755995  0.40705716     0.17200
N3598       N  0.65616969  0.03238951  0.40557414    -0.89500
H3599       H  0.60072044  0.95795792  0.35695304     0.34600
H3600       H  0.62335747  0.95945891  0.33846996     0.39700
H3601       H  0.64401032  0.04235618  0.41425030     0.39300
H3602       H  0.66634111  0.04319991  0.39541598     0.34200
C3603       C  0.74870927  0.98295348  0.38986219    -0.27500
C3604       C  0.75163002  0.96530746  0.37374000    -0.15600
C3605       C  0.76941345  0.96674126  0.35749348     0.35100
C3606       C  0.78554781  0.98409374  0.35930796    -0.27000
C3607       C  0.78441946  0.99991629  0.37725562    -0.16200
C3608       C  0.76514314  0.00019861  0.39192397     0.36100
N3609       N  0.76301036  0.01668570  0.40998091    -0.90400
H3610       H  0.73477433  0.98235089  0.40222187     0.17300
H3611       H  0.79992754  0.98415845  0.34753307     0.17200
N3612       N  0.77177268  0.95011886  0.33967509    -0.89500
H3613       H  0.76266762  0.00781186  0.42564184     0.34600
H3614       H  0.74719049  0.02505363  0.40807797     0.39700
H3615       H  0.78782759  0.94215189  0.34139036     0.39300
H3616       H  0.77156252  0.95887261  0.32394293     0.34200
C3617       C  0.61664739  0.87889082  0.27210485    -0.27500
C3618       C  0.63906270  0.87962357  0.28070943    -0.15600
C3619       C  0.65749046  0.88168364  0.26476099     0.35100
C3620       C  0.65326024  0.88332633  0.24097546    -0.27000
C3621       C  0.63087954  0.88298071  0.23242620    -0.16200
C3622       C  0.61247623  0.88059721  0.24822119     0.36100
N3623       N  0.58937337  0.87996263  0.23993479    -0.90400
H3624       H  0.60237340  0.87654086  0.28383472     0.17300
H3625       H  0.66750400  0.88604957  0.22927663     0.17200
N3626       N  0.68070875  0.88268010  0.27273227    -0.89500
H3627       H  0.58016355  0.89333802  0.24766320     0.34600
H3628       H  0.58211252  0.86445052  0.24526038     0.39700
H3629       H  0.68782618  0.89815760  0.26711191     0.39300
H3630       H  0.68992314  0.86924488  0.26511499     0.34200
C3631       C  0.75870275  0.64295157  0.37302832    -0.27500
C3632       C  0.77550860  0.63380947  0.38820928    -0.15600
C3633       C  0.76795847  0.62083243  0.40713405     0.35100
C3634       C  0.74409587  0.61809073  0.41083914    -0.27000
C3635       C  0.72721941  0.62806337  0.39612961    -0.16200
C3636       C  0.73487451  0.64046604  0.37685915     0.36100
N3637       N  0.71860816  0.65075699  0.36134954    -0.90400
H3638       H  0.76416636  0.65285706  0.35822268     0.17300
H3639       H  0.73872697  0.60830459  0.42575203     0.17200
N3640       N  0.78431532  0.61135322  0.42307093    -0.89500
H3641       H  0.72705189  0.65870681  0.34762808     0.34600
H3642       H  0.71004278  0.66382471  0.37026896     0.39700
H3643       H  0.79384237  0.59881972  0.41435928     0.39300
H3644       H  0.77593225  0.60292623  0.43654831     0.34200
C3645       C  0.77684345  0.76062551  0.41631223    -0.27500
C3646       C  0.77667344  0.74381733  0.39916157    -0.15600
C3647       C  0.75711031  0.74142799  0.38523798     0.35100
C3648       C  0.74009754  0.75847247  0.38579053    -0.27000
C3649       C  0.74283827  0.77783075  0.39969289    -0.16200
C3650       C  0.75996800  0.77779310  0.41674943     0.36100
N3651       N  0.76125984  0.79617253  0.43308032    -0.90400
H3652       H  0.79133843  0.76173839  0.42787074     0.17300
H3653       H  0.72635386  0.75788625  0.37330875     0.17200
N3654       N  0.75550217  0.72316062  0.36895215    -0.89500
H3655       H  0.77522154  0.79372152  0.44411686     0.34600
H3656       H  0.74649032  0.79549478  0.44328423     0.39700
H3657       H  0.75421889  0.73038494  0.35252136     0.39300
H3658       H  0.74037706  0.71417194  0.37231776     0.34200
C3659       C  0.87619804  0.74479504  0.49786671    -0.27500
C3660       C  0.86073844  0.74804920  0.47966074    -0.15600
C3661       C  0.84446663  0.76596941  0.48077217     0.35100
C3662       C  0.84670862  0.78268561  0.49766219    -0.27000
C3663       C  0.86486924  0.78164470  0.51335386    -0.16200
C3664       C  0.87850776  0.76162899  0.51473362     0.36100
N3665       N  0.89601903  0.75923025  0.53181834    -0.90400
H3666       H  0.88823130  0.73051762  0.49772489     0.17300
H3667       H  0.83542926  0.79750027  0.49726880     0.17200
N3668       N  0.82661095  0.76804980  0.46399210    -0.89500
H3669       H  0.91183600  0.75742153  0.52345364     0.34600
H3670       H  0.89292201  0.74412968  0.54107613     0.39700
H3671       H  0.82832646  0.78389952  0.45566128     0.39300
H3672       H  0.81085048  0.76810092  0.47263574     0.34200
C3673       C  0.89056057  0.64217752  0.50117018    -0.27500
C3674       C  0.87491076  0.63445203  0.48434190    -0.15600
C3675       C  0.85569978  0.62193195  0.49182117     0.35100
C3676       C  0.85227201  0.61803636  0.51540633    -0.27000
C3677       C  0.86741113  0.62646000  0.53242585    -0.16200
C3678       C  0.88707791  0.63834169  0.52486697     0.36100
N3679       N  0.90372584  0.64682763  0.54066833    -0.90400
H3680       H  0.90555275  0.65179013  0.49589918     0.17300
H3681       H  0.83703819  0.60866749  0.52036431     0.17200
N3682       N  0.83877846  0.61383163  0.47607501    -0.89500
H3683       H  0.91000703  0.63299949  0.55037989     0.34600
H3684       H  0.89562891  0.65848863  0.55165959     0.39700
H3685       H  0.84674417  0.60263742  0.46451949     0.39300
H3686       H  0.83208924  0.62788702  0.46697770     0.34200
C3687       C  0.99382506  0.65613487  0.39434216    -0.27500
C3688       C  0.97746026  0.64088103  0.38489105    -0.15600
C3689       C  0.98575110  0.62063826  0.37451898     0.35100
C3690       C  0.00955117  0.61699519  0.37246546    -0.27000
C3691       C  0.02578838  0.63319351  0.38021890    -0.16200
C3692       C  0.01761537  0.65257327  0.39206177     0.36100
N3693       N  0.03289107  0.66948992  0.40093262    -0.90400
H3694       H  0.98821230  0.67161558  0.40299625     0.17300
H3695       H  0.01539772  0.60169029  0.36362067     0.17200
N3696       N  0.97061792  0.60373042  0.36542113    -0.89500
H3697       H  0.04261383  0.67610774  0.38734421     0.34600
H3698       H  0.04397259  0.66142872  0.41259998     0.39700
H3699       H  0.96060131  0.61139038  0.35261468     0.39300
H3700       H  0.95989174  0.59799482  0.37867199     0.34200
C3701       C  0.98097794  0.75801388  0.39493461    -0.27500
C3702       C  0.96265885  0.76036025  0.37948834    -0.15600
C3703       C  0.96260629  0.77859968  0.36340605     0.35100
C3704       C  0.97971693  0.79529567  0.36463553    -0.27000
C3705       C  0.99685267  0.79403888  0.38145995    -0.16200
C3706       C  0.99800400  0.77477167  0.39616660     0.36100
N3707       N  0.01544645  0.77284837  0.41338096    -0.90400
H3708       H  0.98132407  0.74395087  0.40719622     0.17300
H3709       H  0.97913509  0.80985762  0.35297087     0.17200
N3710       N  0.94481767  0.78053170  0.34640780    -0.89500
H3711       H  0.02425422  0.75735001  0.41087519     0.34600
H3712       H  0.00743247  0.77212189  0.42946114     0.39700
H3713       H  0.94637178  0.76638067  0.33552142     0.39300
H3714       H  0.94715395  0.79514196  0.33616373     0.34200
C3715       C  0.87108943  0.65571753  0.26590869    -0.27500
C3716       C  0.87761481  0.63910157  0.28264923    -0.15600
C3717       C  0.88547998  0.61757784  0.27470998     0.35100
C3718       C  0.88747896  0.61362626  0.25087887    -0.27000
C3719       C  0.88164280  0.63056985  0.23429385    -0.16200
C3720       C  0.87289496  0.65168351  0.24205447     0.36100
N3721       N  0.86712865  0.66946733  0.22581676    -0.90400
H3722       H  0.86481172  0.67236000  0.27139005     0.17300
H3723       H  0.89428767  0.59722000  0.24524544     0.17200
N3724       N  0.89156590  0.59943959  0.29027047    -0.89500
H3725       H  0.86186109  0.68438345  0.23431405     0.34600
H3726       H  0.85297932  0.66386330  0.21643173     0.39700
H3727       H  0.87733567  0.59585245  0.30062345     0.39300
H3728       H  0.90494300  0.60509590  0.30069659     0.34200
C3729       C  0.87829403  0.99600416  0.15537769    -0.27500
C3730       C  0.86796261  0.97913349  0.14132395    -0.15600
C3731       C  0.85441080  0.98669783  0.12273869     0.35100
C3732       C  0.85133137  0.01039352  0.11894250    -0.27000
C3733       C  0.86131684  0.02712336  0.13338184    -0.16200
C3734       C  0.87496190  0.01962764  0.15170330     0.36100
N3735       N  0.88485719  0.03581592  0.16715347    -0.90400
H3736       H  0.88885435  0.99099235  0.16986524     0.17300
H3737       H  0.84063014  0.01570729  0.10465399     0.17200
N3738       N  0.84327724  0.97093602  0.10770662    -0.89500
H3739       H  0.90264098  0.03327466  0.16713619     0.34600
H3740       H  0.87874685  0.03224970  0.18368850     0.39700
H3741       H  0.83228651  0.96064229  0.11747950     0.39300
H3742       H  0.85580478  0.96050937  0.10008607     0.34200
C3743       C  0.98970774  0.89478090  0.15072084    -0.27500
C3744       C  0.97336938  0.87908299  0.14212104    -0.15600
C3745       C  0.98144434  0.86039261  0.12913942     0.35100
C3746       C  0.00509127  0.85735515  0.12580285    -0.27000
C3747       C  0.02163224  0.87238900  0.13520514    -0.16200
C3748       C  0.01352559  0.89167502  0.14742149     0.36100
N3749       N  0.02886854  0.90817462  0.15691046    -0.90400
H3750       H  0.98396325  0.90945634  0.16061871     0.17300
H3751       H  0.01044745  0.84245144  0.11605599     0.17200
N3752       N  0.96624155  0.84358985  0.11992387    -0.89500
H3753       H  0.03880313  0.91497706  0.14356332     0.34600
H3754       H  0.03970132  0.89977860  0.16856699     0.39700
H3755       H  0.95490721  0.85180209  0.10862535     0.39300
H3756       H  0.95689135  0.83627938  0.13342724     0.34200
C3757       C  0.84406208  0.97101991  0.27434830    -0.27500
C3758       C  0.85883326  0.97292874  0.25539704    -0.15600
C3759       C  0.87193508  0.99300908  0.25256068     0.35100
C3760       C  0.87281134  0.00893945  0.27049014    -0.27000
C3761       C  0.86091017  0.00488636  0.29108340    -0.16200
C3762       C  0.84500478  0.98675987  0.29231963     0.36100
N3763       N  0.83083850  0.98362370  0.31232993    -0.90400
H3764       H  0.83304076  0.95619543  0.27607044     0.17300
H3765       H  0.88437060  0.02336607  0.26900575     0.17200
N3766       N  0.88548373  0.99660782  0.23231028    -0.89500
H3767       H  0.82052179  0.96911591  0.31066788     0.34600
H3768       H  0.81974599  0.99778783  0.31325530     0.39700
H3769       H  0.90265301  0.99810735  0.23723375     0.39300
H3770       H  0.88035544  0.01219410  0.22488039     0.34200
C3771       C  0.97924449  0.89484244  0.26164044    -0.27500
C3772       C  0.96147636  0.87884714  0.26432892    -0.15600
C3773       C  0.96287177  0.86246412  0.28230195     0.35100
C3774       C  0.98065699  0.86357963  0.29805511    -0.27000
C3775       C  0.99703413  0.88096691  0.29676215    -0.16200
C3776       C  0.99714569  0.89607231  0.27771006     0.36100
N3777       N  0.01448829  0.91337335  0.27542397    -0.90400
H3778       H  0.97859145  0.90716607  0.24764709     0.17300
H3779       H  0.98089903  0.85141705  0.31222866     0.17200
N3780       N  0.94647439  0.84454027  0.28524173    -0.89500
H3781       H  0.01134375  0.92373117  0.26102663     0.34600
H3782       H  0.03008011  0.90493633  0.27229867     0.39700
H3783       H  0.94496137  0.83590478  0.26963723     0.39300
H3784       H  0.93067431  0.85168158  0.28997146     0.34200
C3785       C  0.86513144  0.76815648  0.25494676    -0.27500
C3786       C  0.88089558  0.78610463  0.25682919    -0.15600
C3787       C  0.89781560  0.78513645  0.27396575     0.35100
C3788       C  0.89691014  0.76794697  0.29069148    -0.27000
C3789       C  0.87905966  0.75198507  0.29080739    -0.16200
C3790       C  0.86378059  0.75124718  0.27194029     0.36100
N3791       N  0.84559099  0.73491816  0.27041608    -0.90400
H3792       H  0.85228241  0.76847133  0.24151854     0.17300
H3793       H  0.90923930  0.76817900  0.30460656     0.17200
N3794       N  0.91525685  0.80221560  0.27515192    -0.89500
H3795       H  0.83465926  0.73693150  0.28452650     0.34600
H3796       H  0.85271637  0.71838101  0.27056497     0.39700
H3797       H  0.93120348  0.79389401  0.27433238     0.39300
H3798       H  0.91393768  0.81016022  0.29117543     0.34200
C3799       C  0.86108873  0.76104855  0.15004126    -0.27500
C3800       C  0.87594741  0.77766117  0.14021729    -0.15600
C3801       C  0.89388948  0.76978358  0.12601624     0.35100
C3802       C  0.89722614  0.74605337  0.12298861    -0.27000
C3803       C  0.88317006  0.72933037  0.13387045    -0.16200
C3804       C  0.86447791  0.73727644  0.14709018     0.36100
N3805       N  0.84886784  0.72179736  0.15803709    -0.90400
H3806       H  0.84684004  0.76651878  0.16074366     0.17300
H3807       H  0.91155097  0.74076430  0.11230846     0.17200
N3808       N  0.90951125  0.78528075  0.11508881    -0.89500
H3809       H  0.85810240  0.71133989  0.16941455     0.34600
H3810       H  0.84149044  0.71150874  0.14542167     0.39700
H3811       H  0.91757501  0.79498158  0.12775811     0.39300
H3812       H  0.90012096  0.79631968  0.10441378     0.34200
C3813       C  0.77262827  0.90382474  0.26516013    -0.27500
C3814       C  0.77428753  0.88599010  0.24924481    -0.15600
C3815       C  0.75753904  0.86859575  0.24916791     0.35100
C3816       C  0.74273389  0.86670703  0.26808915    -0.27000
C3817       C  0.74428222  0.88222420  0.28634908    -0.16200
C3818       C  0.75769216  0.90213015  0.28371611     0.36100
N3819       N  0.75730695  0.92035669  0.30005477    -0.90400
H3820       H  0.78461157  0.91797500  0.26451638     0.17300
H3821       H  0.73149383  0.85202103  0.26945923     0.17200
N3822       N  0.75699518  0.85181462  0.23115645    -0.89500
H3823       H  0.76437359  0.91434803  0.31539948     0.34600
H3824       H  0.74026517  0.92537377  0.30283648     0.39700
H3825       H  0.75258644  0.86045989  0.21596258     0.39300
H3826       H  0.74404223  0.83986740  0.23418843     0.34200
C3827       C  0.75485932  0.86780597  0.15157033    -0.27500
C3828       C  0.77186061  0.87968042  0.13871966    -0.15600
C3829       C  0.76426195  0.89453816  0.12106667     0.35100
C3830       C  0.74052418  0.89777999  0.11740059    -0.27000
C3831       C  0.72358257  0.88664075  0.13095517    -0.16200
C3832       C  0.73106871  0.87107346  0.14793168     0.36100
N3833       N  0.71464667  0.85923891  0.16204673    -0.90400
H3834       H  0.76005684  0.85600900  0.16504665     0.17300
H3835       H  0.73533212  0.90968245  0.10399585     0.17200
N3836       N  0.78006026  0.90695684  0.10690338    -0.89500
H3837       H  0.72294344  0.84915759  0.17443469     0.34600
H3838       H  0.70578743  0.84788926  0.15146007     0.39700
H3839       H  0.79076329  0.89513995  0.09857348     0.39300
H3840       H  0.79006239  0.91734702  0.11743274     0.34200
C3841       C  0.75326457  0.60241057  0.89341576    -0.27500
C3842       C  0.77025540  0.61460530  0.88084625    -0.15600
C3843       C  0.76291944  0.63108705  0.86483331     0.35100
C3844       C  0.73926862  0.63492112  0.86150935    -0.27000
C3845       C  0.72223240  0.62245469  0.87369938    -0.16200
C3846       C  0.72949276  0.60599667  0.88990708     0.36100
N3847       N  0.71291374  0.59272009  0.90245887    -0.90400
H3848       H  0.75847410  0.58957378  0.90591055     0.17300
H3849       H  0.73430588  0.64774071  0.84888915     0.17200
N3850       N  0.77930154  0.64372812  0.85156936    -0.89500
H3851       H  0.72109865  0.58162783  0.91405330     0.34600
H3852       H  0.70443413  0.58230088  0.89067264     0.39700
H3853       H  0.77656087  0.66121367  0.85460789     0.39300
H3854       H  0.77613015  0.64066023  0.83418528     0.34200
C3855       C  0.87935997  0.59755165  0.76603640    -0.27500
C3856       C  0.86763213  0.61104616  0.78266620    -0.15600
C3857       C  0.85328772  0.62894621  0.77469709     0.35100
C3858       C  0.85114917  0.63293055  0.75098212    -0.27000
C3859       C  0.86264892  0.61928845  0.73437855    -0.16200
C3860       C  0.87693678  0.60133633  0.74228021     0.36100
N3861       N  0.88864276  0.58622490  0.72676681    -0.90400
H3862       H  0.89043816  0.58352639  0.77143167     0.17300
H3863       H  0.83989178  0.64680558  0.74555320     0.17200
N3864       N  0.84023612  0.64306179  0.79007026    -0.89500
H3865       H  0.89957844  0.59597420  0.71640679     0.34600
H3866       H  0.87646054  0.57829255  0.71636537     0.39700
H3867       H  0.85156631  0.65152924  0.80095378     0.39300
H3868       H  0.82953392  0.63250070  0.79989612     0.34200
C3869       C  0.98957503  0.60670210  0.87050272    -0.27500
C3870       C  0.97244203  0.61873639  0.88311812    -0.15600
C3871       C  0.97974510  0.63549839  0.89875439     0.35100
C3872       C  0.00355421  0.63862217  0.90250318    -0.27000
C3873       C  0.02067631  0.62550484  0.89097068    -0.16200
C3874       C  0.01337778  0.60974489  0.87431886     0.36100
N3875       N  0.02996224  0.59633525  0.86180710    -0.90400
H3876       H  0.98440375  0.59406194  0.85800080     0.17300
H3877       H  0.00872038  0.65120136  0.91507014     0.17200
N3878       N  0.96312403  0.64869050  0.91144418    -0.89500
H3879       H  0.02182563  0.58591383  0.84979968     0.34600
H3880       H  0.03799639  0.58524690  0.87352324     0.39700
H3881       H  0.95430435  0.65909138  0.89968016     0.39300
H3882       H  0.97128230  0.65978851  0.92282468     0.34200
C3883       C  0.85827050  0.61507652  0.00106825    -0.27500
C3884       C  0.87464077  0.62169869  0.98423184    -0.15600
C3885       C  0.89557114  0.63070843  0.99179916     0.35100
C3886       C  0.89991081  0.63226559  0.01545114    -0.27000
C3887       C  0.88390139  0.62496519  0.03241259    -0.16200
C3888       C  0.86265751  0.61650322  0.02481068     0.36100
N3889       N  0.84532775  0.60904867  0.04059502    -0.90400
H3890       H  0.84202371  0.60794136  0.99571069     0.17300
H3891       H  0.91644655  0.63893942  0.02047468     0.17200
N3892       N  0.91318649  0.63743997  0.97598898    -0.89500
H3893       H  0.84102788  0.62278030  0.05131259     0.34600
H3894       H  0.85210454  0.59569755  0.05061336     0.39700
H3895       H  0.90655281  0.65028776  0.96524189     0.39300
H3896       H  0.91772093  0.62325302  0.96597906     0.34200
C3897       C  0.88363538  0.23624263  0.12588930    -0.27500
C3898       C  0.86117836  0.22917041  0.13083005    -0.15600
C3899       C  0.84399776  0.24657005  0.13359190     0.35100
C3900       C  0.84947727  0.27001254  0.13143194    -0.27000
C3901       C  0.87169740  0.27697978  0.12595364    -0.16200
C3902       C  0.88896159  0.25984124  0.12341268     0.36100
N3903       N  0.91211237  0.26640247  0.11852896    -0.90400
H3904       H  0.89715202  0.22349566  0.12410944     0.17300
H3905       H  0.83592421  0.28277966  0.13289514     0.17200
N3906       N  0.82054100  0.24061522  0.13784254    -0.89500
H3907       H  0.91716215  0.25849873  0.10322005     0.34600
H3908       H  0.92256539  0.26004024  0.13170808     0.39700
H3909       H  0.81052610  0.24738560  0.12451959     0.39300
H3910       H  0.81533484  0.24837661  0.15317591     0.34200
C3911       C  0.75690217  0.38662595  0.11607660    -0.27500
C3912       C  0.77376459  0.37254766  0.12687166    -0.15600
C3913       C  0.76606388  0.35464957  0.14121684     0.35100
C3914       C  0.74234226  0.35108891  0.14405665    -0.27000
C3915       C  0.72547093  0.36482097  0.13278209    -0.16200
C3916       C  0.73320416  0.38293847  0.11872723     0.36100
N3917       N  0.71758495  0.39766560  0.10658800    -0.90400
H3918       H  0.76209599  0.40064427  0.10496708     0.17300
H3919       H  0.73717561  0.33700829  0.15509399     0.17200
N3920       N  0.78175099  0.33942220  0.15264195    -0.89500
H3921       H  0.70686507  0.40575669  0.11853009     0.34600
H3922       H  0.70760848  0.38759977  0.09571027     0.39700
H3923       H  0.79222666  0.34912726  0.16335454     0.39300
H3924       H  0.79200836  0.33137865  0.14025068     0.34200
C3925       C  0.86297719  0.49495588  0.12091439    -0.27500
C3926       C  0.87830222  0.47826054  0.13015374    -0.15600
C3927       C  0.89777236  0.48609763  0.14188487     0.35100
C3928       C  0.90157639  0.50985486  0.14375036    -0.27000
C3929       C  0.88661770  0.52656019  0.13382318    -0.16200
C3930       C  0.86700492  0.51865780  0.12233891     0.36100
N3931       N  0.85105531  0.53408795  0.11157253    -0.90400
H3932       H  0.84779223  0.48957765  0.11175103     0.17300
H3933       H  0.91687416  0.51516908  0.15274757     0.17200
N3934       N  0.91441705  0.47050841  0.15130051    -0.89500
H3935       H  0.85983908  0.54370499  0.09915699     0.34600
H3936       H  0.84444492  0.54516200  0.12402876     0.39700
H3937       H  0.92086446  0.46030874  0.13806612     0.39300
H3938       H  0.90617254  0.45991039  0.16331041     0.34200
C3939       C  0.86582026  0.51194684  0.00317241    -0.27500
C3940       C  0.88251100  0.51060163  0.98579790    -0.15600
C3941       C  0.90147717  0.49584248  0.98863887     0.35100
C3942       C  0.90167543  0.48012178  0.00677724    -0.27000
C3943       C  0.88293214  0.47869671  0.02177227    -0.16200
C3944       C  0.86582909  0.49594159  0.02122610     0.36100
N3945       N  0.84739432  0.49601738  0.03756171    -0.90400
H3946       H  0.85147693  0.52379364  0.00154795     0.17300
H3947       H  0.91540385  0.46747448  0.00767836     0.17200
N3948       N  0.91980115  0.49565488  0.97227123    -0.89500
H3949       H  0.83196082  0.49433808  0.02861942     0.34600
H3950       H  0.84719829  0.51197247  0.04571609     0.39700
H3951       H  0.92087610  0.47906300  0.96557397     0.39300
H3952       H  0.93505870  0.49893205  0.98103557     0.34200
C3953       C  0.99326872  0.37280712  0.10901955    -0.27500
C3954       C  0.97679790  0.38015905  0.12555701    -0.15600
C3955       C  0.98513257  0.38971313  0.14609375     0.35100
C3956       C  0.00900293  0.39223106  0.14923199    -0.27000
C3957       C  0.02528984  0.38530022  0.13243325    -0.16200
C3958       C  0.01715884  0.37514262  0.11224937     0.36100
N3959       N  0.03301775  0.36829496  0.09456337    -0.90400
H3960       H  0.98757123  0.36534373  0.09304462     0.17300
H3961       H  0.01487652  0.40016654  0.16493078     0.17200
N3962       N  0.96994255  0.39711346  0.16399207    -0.89500
H3963       H  0.02423006  0.36198030  0.08031555     0.34600
H3964       H  0.04275406  0.35459421  0.10101998     0.39700
H3965       H  0.96006011  0.38311855  0.16920575     0.39300
H3966       H  0.95903755  0.40983966  0.15734499     0.34200
C3967       C  0.13156765  0.36183091  0.77256714    -0.27500
C3968       C  0.11084719  0.37222897  0.77916968    -0.15600
C3969       C  0.09559672  0.37969146  0.76133235     0.35100
C3970       C  0.10133495  0.37671024  0.73800470    -0.27000
C3971       C  0.12169623  0.36581813  0.73148798    -0.16200
C3972       C  0.13704459  0.35847688  0.74911486     0.36100
N3973       N  0.15839133  0.34756488  0.74333599    -0.90400
H3974       H  0.14356131  0.35611029  0.78562106     0.17300
H3975       H  0.08920313  0.38209958  0.72492702     0.17200
N3976       N  0.07375286  0.38987761  0.76659588    -0.89500
H3977       H  0.15871975  0.33132774  0.75107507     0.34600
H3978       H  0.17168189  0.35723048  0.75034979     0.39700
H3979       H  0.06095998  0.37979130  0.75926463     0.39300
H3980       H  0.07303576  0.40615085  0.75894276     0.34200
C3981       C  0.09973390  0.25867306  0.88716213    -0.27500
C3982       C  0.11430923  0.27555584  0.87735816    -0.15600
C3983       C  0.13313653  0.26785508  0.86413930     0.35100
C3984       C  0.13658650  0.24411089  0.86081474    -0.27000
C3985       C  0.12164846  0.22733442  0.87025903    -0.16200
C3986       C  0.10313180  0.23503982  0.88379436     0.36100
N3987       N  0.08702947  0.21944600  0.89381957    -0.90400
H3988       H  0.08506045  0.26375076  0.89746373     0.17300
H3989       H  0.15107185  0.23879150  0.85035459     0.17200
N3990       N  0.14893592  0.28354175  0.85377085    -0.89500
H3991       H  0.09587081  0.20831905  0.90482404     0.34600
H3992       H  0.07953119  0.20989294  0.88066380     0.39700
H3993       H  0.15619478  0.29348939  0.86671263     0.39300
H3994       H  0.13984930  0.29432318  0.84255900     0.34200
C3995       C  0.09927704  0.49438065  0.87080637    -0.27500
C3996       C  0.11171265  0.47710442  0.88284954    -0.15600
C3997       C  0.12834322  0.48401936  0.89869115     0.35100
C3998       C  0.13191057  0.50758656  0.90247494    -0.27000
C3999       C  0.11897500  0.52488949  0.89097709    -0.16200
C4000       C  0.10263484  0.51798618  0.87484284     0.36100
N4001       N  0.08886765  0.53472173  0.86306507    -0.90400
H4002       H  0.08632073  0.48961795  0.85844081     0.17300
H4003       H  0.14470355  0.51225642  0.91504859     0.17200
N4004       N  0.14116809  0.46730089  0.91154060    -0.89500
H4005       H  0.07163757  0.53136965  0.86676554     0.34600
H4006       H  0.09135858  0.53254564  0.84541303     0.39700
H4007       H  0.13809245  0.47012604  0.92901808     0.39300
H4008       H  0.15861197  0.47001432  0.90839530     0.34200
C4009       C  0.98404890  0.50562728  0.88088389    -0.27500
C4010       C  0.96665335  0.50354090  0.89742736    -0.15600
C4011       C  0.96783826  0.48563744  0.91367269     0.35100
C4012       C  0.98408574  0.46817091  0.91092071    -0.27000
C4013       C  0.99927899  0.46839637  0.89224484    -0.16200
C4014       C  0.00023492  0.48812512  0.87792248     0.36100
N4015       N  0.01607647  0.49022382  0.85918202    -0.90400
H4016       H  0.98375720  0.51971297  0.86864369     0.17300
H4017       H  0.98382376  0.45367397  0.92264903     0.17200
N4018       N  0.95186797  0.48448436  0.93231804    -0.89500
H4019       H  0.01323007  0.47695169  0.84754745     0.34600
H4020       H  0.03278698  0.48905589  0.86560650     0.39700
H4021       H  0.96126699  0.48403928  0.94759009     0.39300
H4022       H  0.94295466  0.46902404  0.93102041     0.34200
C4023       C  0.10806431  0.36461888  0.99856983    -0.27500
C4024       C  0.11705268  0.38000843  0.98185583    -0.15600
C4025       C  0.12974039  0.39883486  0.98948948     0.35100
C4026       C  0.13246466  0.40222518  0.01332925    -0.27000
C4027       C  0.12267036  0.38735994  0.03014333    -0.16200
C4028       C  0.11046614  0.36820330  0.02244539     0.36100
N4029       N  0.10028892  0.35262857  0.03868673    -0.90400
H4030       H  0.09832953  0.34990142  0.99299037     0.17300
H4031       H  0.14207699  0.41708697  0.01870558     0.17200
N4032       N  0.13885285  0.41505491  0.97322482    -0.89500
H4033       H  0.09235139  0.33907063  0.03017681     0.34600
H4034       H  0.08724528  0.36156241  0.04728032     0.39700
H4035       H  0.15156290  0.40659770  0.96371695     0.39300
H4036       H  0.14697551  0.42852886  0.98170141     0.34200
C4037       C  0.00416898  0.37263342  0.99672147    -0.27500
C4038       C  0.00175945  0.38684867  0.97734306    -0.15600
C4039       C  0.98516013  0.40455515  0.97753559     0.35100
C4040       C  0.96912150  0.40557782  0.99539058    -0.27000
C4041       C  0.96943271  0.38922345  0.01314216    -0.16200
C4042       C  0.98814699  0.37374511  0.01473581     0.36100
N4043       N  0.99020912  0.35818615  0.03376398    -0.90400
H4044       H  0.01737640  0.35943775  0.99713731     0.17300
H4045       H  0.95545083  0.41827610  0.99447455     0.17200
N4046       N  0.98396504  0.42099388  0.95917502    -0.89500
H4047       H  0.00614151  0.36086796  0.04145240     0.34600
H4048       H  0.99003284  0.34141771  0.02742181     0.39700
H4049       H  0.98568017  0.43737228  0.96620778     0.39300
H4050       H  0.96769731  0.42001071  0.95171216     0.34200
C4051       C  0.64598727  0.36636975  0.76840281    -0.27500
C4052       C  0.63147323  0.37663188  0.78515684    -0.15600
C4053       C  0.61195004  0.38874218  0.77749494     0.35100
C4054       C  0.60834123  0.39160678  0.75362887    -0.27000
C4055       C  0.62364775  0.38249106  0.73697004    -0.16200
C4056       C  0.64240424  0.36927167  0.74458232     0.36100
N4057       N  0.65830244  0.35962898  0.72828106    -0.90400
H4058       H  0.66088231  0.35655614  0.77382904     0.17300
H4059       H  0.59361871  0.40158950  0.74799290     0.17200
N4060       N  0.59618740  0.39858551  0.79378595    -0.89500
H4061       H  0.67099459  0.35001564  0.73668374     0.34600
H4062       H  0.66670497  0.37325459  0.72014899     0.39700
H4063       H  0.58839455  0.38503092  0.80260964     0.39300
H4064       H  0.58302171  0.40748250  0.78531251     0.34200
C4065       C  0.75908708  0.51062430  0.89248076    -0.27500
C4066       C  0.77807083  0.50686302  0.87804467    -0.15600
C4067       C  0.77677167  0.49040919  0.86056596     0.35100
C4068       C  0.75799465  0.47574166  0.85997246    -0.27000
C4069       C  0.74104360  0.47668517  0.87715892    -0.16200
C4070       C  0.74071071  0.49540343  0.89255328     0.36100
N4071       N  0.72327208  0.49832656  0.90970102    -0.90400
H4072       H  0.75959902  0.52384416  0.90550495     0.17300
H4073       H  0.75794110  0.46207169  0.84739259     0.17200
N4074       N  0.79501178  0.48770173  0.84420914    -0.89500
H4075       H  0.72392884  0.48445966  0.92113697     0.34600
H4076       H  0.70730565  0.49873714  0.90157704     0.39700
H4077       H  0.78811961  0.48974875  0.82775496     0.39300
H4078       H  0.80140362  0.47092483  0.84559693     0.34200
C4079       C  0.64760994  0.49599884  0.88523909    -0.27500
C4080       C  0.63026905  0.47975103  0.88018081    -0.15600
C4081       C  0.60869936  0.48822973  0.87312559     0.35100
C4082       C  0.60511583  0.51215388  0.87121998    -0.27000
C4083       C  0.62253330  0.52821561  0.87634669    -0.16200
C4084       C  0.64401676  0.51988450  0.88340857     0.36100
N4085       N  0.66237332  0.53558834  0.88790946    -0.90400
H4086       H  0.66446394  0.49008956  0.89050290     0.17300
H4087       H  0.58852715  0.51828536  0.86533311     0.17200
N4088       N  0.59013889  0.47315167  0.86800646    -0.89500
H4089       H  0.66665625  0.54361043  0.87240462     0.34600
H4090       H  0.67708984  0.52672125  0.89331652     0.39700
H4091       H  0.58679226  0.46312388  0.88256460     0.39300
H4092       H  0.59529554  0.46232337  0.85465551     0.34200
C4093       C  0.63832415  0.39052612  0.00350628    -0.27500
C4094       C  0.63012336  0.37491663  0.98686006    -0.15600
C4095       C  0.61826128  0.35541796  0.99466543     0.35100
C4096       C  0.61584861  0.35149648  0.01838343    -0.27000
C4097       C  0.62489766  0.36660427  0.03511607    -0.16200
C4098       C  0.63581769  0.38667169  0.02725193     0.36100
N4099       N  0.64457398  0.40343122  0.04277457    -0.90400
H4100       H  0.64725070  0.40588364  0.99805547     0.17300
H4101       H  0.60701760  0.33602892  0.02364650     0.17200
N4102       N  0.60910670  0.33891106  0.97908993    -0.89500
H4103       H  0.65698291  0.39558665  0.05317267     0.34600
H4104       H  0.63106576  0.40927135  0.05311379     0.39700
H4105       H  0.62252420  0.33241598  0.96901186     0.39300
H4106       H  0.59727240  0.34723827  0.96840527     0.34200
C4107       C  0.76396314  0.35945225  0.97882321    -0.27500
C4108       C  0.74627365  0.37576960  0.98050812    -0.15600
C4109       C  0.74457767  0.38938089  0.00054812     0.35100
C4110       C  0.76232031  0.38845872  0.01672507    -0.27000
C4111       C  0.78174721  0.37451950  0.01298665    -0.16200
C4112       C  0.78174652  0.35885277  0.99469972     0.36100
N4113       N  0.80027758  0.34293125  0.99152279    -0.90400
H4114       H  0.76497742  0.34810016  0.96414318     0.17300
H4115       H  0.76176804  0.40010087  0.03118317     0.17200
N4116       N  0.72603066  0.40519927  0.00432890    -0.89500
H4117       H  0.80761924  0.34610701  0.97541021     0.34600
H4118       H  0.79340104  0.32639916  0.99134380     0.39700
H4119       H  0.71061953  0.39613474  0.00389656     0.39300
H4120       H  0.72606414  0.41753551  0.99122928     0.34200
C4121       C  0.65332000  0.26047228  0.88367008    -0.27500
C4122       C  0.63605264  0.27702065  0.88882456    -0.15600
C4123       C  0.61410175  0.26895261  0.89498472     0.35100
C4124       C  0.61020775  0.24517470  0.89643615    -0.27000
C4125       C  0.62766258  0.22880156  0.89185223    -0.16200
C4126       C  0.64934258  0.23668337  0.88519006     0.36100
N4127       N  0.66770098  0.22071473  0.88110781    -0.90400
H4128       H  0.67040098  0.26593333  0.87881546     0.17300
H4129       H  0.59338262  0.23940612  0.90184897     0.17200
N4130       N  0.59545341  0.28430758  0.89988584    -0.89500
H4131       H  0.68099865  0.22437973  0.89251054     0.34600
H4132       H  0.67380590  0.22342370  0.86440965     0.39700
H4133       H  0.59266850  0.29473870  0.88547853     0.39300
H4134       H  0.60006043  0.29462380  0.91374299     0.34200
C4135       C  0.00599623  0.11709319  0.85361188    -0.27500
C4136       C  0.02286342  0.12547817  0.86898410    -0.15600
C4137       C  0.01527435  0.13424375  0.89023882     0.35100
C4138       C  0.99163362  0.13537388  0.89506063    -0.27000
C4139       C  0.97483655  0.12843171  0.87903636    -0.16200
C4140       C  0.98228130  0.11861049  0.85838914     0.36100
N4141       N  0.96592483  0.11133243  0.84167680    -0.90400
H4142       H  0.01108689  0.10990103  0.83723284     0.17300
H4143       H  0.98628833  0.14294532  0.91120368     0.17200
N4144       N  0.03094819  0.14265351  0.90705371    -0.89500
H4145       H  0.96899719  0.09396991  0.83826789     0.34600
H4146       H  0.96881413  0.12058761  0.82651327     0.39700
H4147       H  0.04022664  0.15617439  0.89979440     0.39300
H4148       H  0.04229241  0.12938348  0.91151541     0.34200
C4149       C  0.86055894  0.11631337  0.01499420    -0.27500
C4150       C  0.86934357  0.13144951  0.03178567    -0.15600
C4151       C  0.88252327  0.15014242  0.02431708     0.35100
C4152       C  0.88554841  0.15394411  0.00048660    -0.27000
C4153       C  0.87552935  0.13962247  0.98363916    -0.16200
C4154       C  0.86348650  0.12013642  0.99118647     0.36100
N4155       N  0.85384570  0.10454999  0.97483046    -0.90400
H4156       H  0.85068670  0.10156159  0.02046624     0.17300
H4157       H  0.89530500  0.16878983  0.99510996     0.17200
N4158       N  0.89208738  0.16567461  0.04075775    -0.89500
H4159       H  0.84490946  0.09144112  0.98321797     0.34600
H4160       H  0.86750034  0.09663630  0.96617318     0.39700
H4161       H  0.87844224  0.17411810  0.04889705     0.39300
H4162       H  0.90167974  0.17837135  0.03245214     0.34200
C4163       C  0.86075458  0.27477837  0.96785424    -0.27500
C4164       C  0.87876463  0.25876257  0.96851664    -0.15600
C4165       C  0.89426795  0.25876389  0.98710919     0.35100
C4166       C  0.89212877  0.27585072  0.00390432    -0.27000
C4167       C  0.87500692  0.29287933  0.00231402    -0.16200
C4168       C  0.85879511  0.29185212  0.98433774     0.36100
N4169       N  0.84015320  0.30783464  0.98223666    -0.90400
H4170       H  0.84852134  0.27459987  0.95384989     0.17300
H4171       H  0.90456805  0.27646918  0.01768316     0.17200
N4172       N  0.91287484  0.24244406  0.98819407    -0.89500
H4173       H  0.84663527  0.32407627  0.97841344     0.34600
H4174       H  0.83133254  0.30826187  0.99789458     0.39700
H4175       H  0.90574919  0.22632113  0.99143253     0.39300
H4176       H  0.92356410  0.24590669  0.00213170     0.34200
C4177       C  0.99366756  0.24269496  0.88621428    -0.27500
C4178       C  0.97695342  0.24392516  0.86893459    -0.15600
C4179       C  0.97887017  0.26060472  0.85142652     0.35100
C4180       C  0.99493814  0.27808383  0.85372667    -0.27000
C4181       C  0.00900467  0.27901052  0.87308331    -0.16200
C4182       C  0.00976437  0.26027033  0.88846914     0.36100
N4183       N  0.02527318  0.26003797  0.90752288    -0.90400
H4184       H  0.99277689  0.22951939  0.89939313     0.17300
H4185       H  0.99518296  0.29203224  0.84138066     0.17200
N4186       N  0.96340361  0.26063979  0.83228122    -0.89500
H4187       H  0.03520570  0.24504362  0.90657870     0.34600
H4188       H  0.01561213  0.25936998  0.92267687     0.39700
H4189       H  0.96659383  0.24560936  0.82303144     0.39300
H4190       H  0.96689679  0.27435363  0.82118118     0.34200
C4191       C  0.79252587  0.27626413  0.90480413    -0.27500
C4192       C  0.79052062  0.25900060  0.88828773    -0.15600
C4193       C  0.76991263  0.25695984  0.87586340     0.35100
C4194       C  0.75264706  0.27352011  0.87858522    -0.27000
C4195       C  0.75569415  0.29227745  0.89327563    -0.16200
C4196       C  0.77541224  0.29288661  0.90749254     0.36100
N4197       N  0.77885156  0.31017942  0.92455128    -0.90400
H4198       H  0.80797623  0.27748154  0.91505145     0.17300
H4199       H  0.73745881  0.27240754  0.86795837     0.17200
N4200       N  0.76688293  0.23894758  0.85950240    -0.89500
H4201       H  0.76429052  0.31108438  0.93504696     0.34600
H4202       H  0.78157877  0.32601491  0.91654308     0.39700
H4203       H  0.76394654  0.24643537  0.84340045     0.39300
H4204       H  0.75224362  0.22972316  0.86416280     0.34200
C4205       C  0.75645114  0.15756580  0.87937549    -0.27500
C4206       C  0.77365346  0.14289025  0.88879378    -0.15600
C4207       C  0.76621618  0.12348394  0.90132336     0.35100
C4208       C  0.74255581  0.11949187  0.90432753    -0.27000
C4209       C  0.72542804  0.13429154  0.89514805    -0.16200
C4210       C  0.73270791  0.15348481  0.88244852     0.36100
N4211       N  0.71618199  0.16932519  0.87325439    -0.90400
H4212       H  0.76135613  0.17266927  0.86965409     0.17300
H4213       H  0.73755120  0.10455570  0.91426455     0.17200
N4214       N  0.78212700  0.10753455  0.91136749    -0.89500
H4215       H  0.71869846  0.17031470  0.85548656     0.34600
H4216       H  0.71943306  0.18552342  0.88014076     0.39700
H4217       H  0.79252965  0.11636479  0.92289678     0.39300
H4218       H  0.79236432  0.10063659  0.89830186     0.34200
C4219       C  0.86112505  0.14352650  0.76483196    -0.27500
C4220       C  0.87593580  0.13371834  0.78163904    -0.15600
C4221       C  0.89468446  0.12048727  0.77385457     0.35100
C4222       C  0.89843427  0.11783372  0.75013024    -0.27000
C4223       C  0.88406761  0.12821808  0.73330501    -0.16200
C4224       C  0.86503386  0.14097588  0.74099933     0.36100
N4225       N  0.84983773  0.15171255  0.72484653    -0.90400
H4226       H  0.84651043  0.15381900  0.77018014     0.17300
H4227       H  0.91324381  0.10776812  0.74492020     0.17200
N4228       N  0.91074147  0.11023906  0.78947112    -0.89500
H4229       H  0.84967973  0.16936870  0.72803161     0.34600
H4230       H  0.83329966  0.14551703  0.72787707     0.39700
H4231       H  0.90185297  0.09901873  0.80031763     0.39300
H4232       H  0.91801214  0.12321182  0.79936635     0.34200
C4233       C  0.87297966  0.49107454  0.67048056    -0.27500
C4234       C  0.86945298  0.47434987  0.65323930    -0.15600
C4235       C  0.86508141  0.48209888  0.63076872     0.35100
C4236       C  0.86407812  0.50587413  0.62602111    -0.27000
C4237       C  0.86719208  0.52259708  0.64325733    -0.16200
C4238       C  0.87160098  0.51497112  0.66582503     0.36100
N4239       N  0.87376554  0.53133586  0.68407586    -0.90400
H4240       H  0.87637179  0.48548842  0.68793136     0.17300
H4241       H  0.86025616  0.51133968  0.60861163     0.17200
N4242       N  0.86180278  0.46598538  0.61260945    -0.89500
H4243       H  0.87697956  0.52294502  0.69967593     0.34600
H4244       H  0.85792534  0.53969851  0.68592612     0.39700
H4245       H  0.87418197  0.46912442  0.59995673     0.39300
H4246       H  0.84564643  0.46908064  0.60541052     0.34200
C4247       C  0.78503535  0.39590032  0.77729972    -0.27500
C4248       C  0.78322858  0.37765111  0.76186135    -0.15600
C4249       C  0.76226114  0.36584593  0.75996158     0.35100
C4250       C  0.74479478  0.37041562  0.77597716    -0.27000
C4251       C  0.74801143  0.38661070  0.79346251    -0.16200
C4252       C  0.76745145  0.40076661  0.79285434     0.36100
N4253       N  0.76991152  0.41935953  0.80867417    -0.90400
H4254       H  0.80069391  0.40564639  0.77816118     0.17300
H4255       H  0.72945793  0.36001211  0.77586628     0.17200
N4256       N  0.75939080  0.34813876  0.74311823    -0.89500
H4257       H  0.77206885  0.43447977  0.79917043     0.34600
H4258       H  0.78484430  0.41653179  0.81823586     0.39700
H4259       H  0.75930058  0.35608694  0.72696810     0.39300
H4260       H  0.74337464  0.34035021  0.74497036     0.34200
C4261       C  0.75571327  0.35934234  0.65536903    -0.27500
C4262       C  0.77207004  0.37623567  0.64918170    -0.15600
C4263       C  0.76408585  0.39701043  0.63971052     0.35100
C4264       C  0.74049364  0.40050255  0.63677940    -0.27000
C4265       C  0.72397837  0.38370926  0.64287441    -0.16200
C4266       C  0.73184091  0.36277063  0.65214624     0.36100
N4267       N  0.71579087  0.34513034  0.65820440    -0.90400
H4268       H  0.76159609  0.34328443  0.66285028     0.17300
H4269       H  0.73513716  0.41692784  0.62972132     0.17200
N4270       N  0.77934092  0.41527395  0.63369898    -0.89500
H4271       H  0.72438137  0.33088774  0.66513862     0.34600
H4272       H  0.70808246  0.33958336  0.64303245     0.39700
H4273       H  0.79073642  0.40935503  0.62111652     0.39300
H4274       H  0.78864676  0.41983435  0.64828871     0.34200
C4275       C  0.87876081  0.47601458  0.76396804    -0.27500
C4276       C  0.86629958  0.45597850  0.76870420    -0.15600
C4277       C  0.85081566  0.45568908  0.78732590     0.35100
C4278       C  0.85043862  0.47419760  0.80257334    -0.27000
C4279       C  0.86502210  0.49304592  0.79937343    -0.16200
C4280       C  0.87818066  0.49460418  0.77908878     0.36100
N4281       N  0.89186584  0.51439593  0.77428368    -0.90400
H4282       H  0.89006128  0.47684610  0.74917001     0.17300
H4283       H  0.83946752  0.47337100  0.81761298     0.17200
N4284       N  0.83580399  0.43654778  0.79085241    -0.89500
H4285       H  0.88674360  0.52113576  0.75840545     0.34600
H4286       H  0.90899355  0.50909220  0.77281357     0.39700
H4287       H  0.82465783  0.43634090  0.77682623     0.39300
H4288       H  0.82558044  0.43899948  0.80544236     0.34200
C4289       C  0.98997754  0.38478416  0.65669227    -0.27500
C4290       C  0.97321259  0.37358456  0.64315072    -0.15600
C4291       C  0.98097431  0.35985266  0.62483784     0.35100
C4292       C  0.00469841  0.35702156  0.62112098    -0.27000
C4293       C  0.02139528  0.36721331  0.63548876    -0.16200
C4294       C  0.01364805  0.38156532  0.65328253     0.36100
N4295       N  0.02921636  0.39226083  0.66884185    -0.90400
H4296       H  0.98477088  0.39569329  0.67082208     0.17300
H4297       H  0.01006879  0.34601117  0.60712435     0.17200
N4298       N  0.96538043  0.34800409  0.61018418    -0.89500
H4299       H  0.04018321  0.40286760  0.65938758     0.34600
H4300       H  0.03896726  0.37946257  0.67694529     0.39700
H4301       H  0.95456286  0.36010909  0.60238826     0.39300
H4302       H  0.95547757  0.33692581  0.62027253     0.34200
C4303       C  0.97132458  0.33857093  0.77154279    -0.27500
C4304       C  0.97108373  0.35485518  0.75373343    -0.15600
C4305       C  0.98930698  0.37057432  0.75182018     0.35100
C4306       C  0.00481912  0.37253148  0.76999969    -0.27000
C4307       C  0.00229530  0.35896398  0.78981442    -0.16200
C4308       C  0.98667526  0.34064838  0.78975265     0.36100
N4309       N  0.98554383  0.32484006  0.80862822    -0.90400
H4310       H  0.95810333  0.32559893  0.77258715     0.17300
H4311       H  0.01745141  0.38608507  0.76941405     0.17200
N4312       N  0.99109348  0.38577234  0.73247212    -0.89500
H4313       H  0.98828295  0.30832349  0.80216294     0.34600
H4314       H  0.96896539  0.32552313  0.81553173     0.39700
H4315       H  0.00724083  0.38330612  0.72495001     0.39300
H4316       H  0.99017833  0.40265972  0.73843974     0.34200
C4317       C  0.90981720  0.26691584  0.75845170    -0.27500
C4318       C  0.89023461  0.26801859  0.74456679    -0.15600
C4319       C  0.87452491  0.24959269  0.74512114     0.35100
C4320       C  0.87611452  0.23350853  0.76289095    -0.27000
C4321       C  0.89256634  0.23614995  0.78021957    -0.16200
C4322       C  0.91092273  0.25123081  0.77660903     0.36100
N4323       N  0.92963538  0.25202667  0.79240606    -0.90400
H4324       H  0.92276421  0.28015162  0.75721405     0.17300
H4325       H  0.86254967  0.22099565  0.76477761     0.17200
N4326       N  0.85549871  0.24804295  0.72968447    -0.89500
H4327       H  0.93021849  0.26861724  0.79914675     0.34600
H4328       H  0.94480244  0.24917664  0.78316757     0.39700
H4329       H  0.86174937  0.24860313  0.71282663     0.39300
H4330       H  0.84436058  0.26188734  0.73242736     0.34200
C4331       C  0.86049652  0.25706455  0.64627595    -0.27500
C4332       C  0.87707334  0.27353633  0.63966437    -0.15600
C4333       C  0.89788711  0.26568820  0.63020120     0.35100
C4334       C  0.90174364  0.24199293  0.62791697    -0.27000
C4335       C  0.88536587  0.22547057  0.63507360    -0.16200
C4336       C  0.86443120  0.23338650  0.64428447     0.36100
N4337       N  0.84687394  0.21798909  0.65182775    -0.90400
H4338       H  0.84436106  0.26263195  0.65379435     0.17300
H4339       H  0.91808021  0.23654420  0.62077565     0.17200
N4340       N  0.91574695  0.28117909  0.62365141    -0.89500
H4341       H  0.85355373  0.20752025  0.66486054     0.34600
H4342       H  0.84208725  0.20774103  0.63797228     0.39700
H4343       H  0.92042907  0.29071270  0.63805186     0.39300
H4344       H  0.90925950  0.29241747  0.61117542     0.34200
C4345       C  0.59137783  0.76132334  0.88290745    -0.27500
C4346       C  0.60807003  0.77793984  0.87688373    -0.15600
C4347       C  0.62955154  0.77013126  0.86888518     0.35100
C4348       C  0.63391762  0.74624056  0.86759927    -0.27000
C4349       C  0.61723903  0.72972344  0.87377878    -0.16200
C4350       C  0.59568600  0.73749961  0.88143177     0.36100
N4351       N  0.57785208  0.72132370  0.88655279    -0.90400
H4352       H  0.57458575  0.76688753  0.88876284     0.17300
H4353       H  0.65043712  0.74042820  0.86119660     0.17200
N4354       N  0.64686308  0.78629110  0.86215888    -0.89500
H4355       H  0.56260450  0.72986280  0.89086130     0.34600
H4356       H  0.58286003  0.71208654  0.90116977     0.39700
H4357       H  0.64091962  0.79490393  0.84751638     0.39300
H4358       H  0.66192330  0.77771485  0.85726476     0.34200
C4359       C  0.59961983  0.88677905  0.76391632    -0.27500
C4360       C  0.61373242  0.87654650  0.78107974    -0.15600
C4361       C  0.63274690  0.86355518  0.77371235     0.35100
C4362       C  0.63683822  0.86052139  0.74994664    -0.27000
C4363       C  0.62227513  0.87011030  0.73284079    -0.16200
C4364       C  0.60357964  0.88369503  0.74024311     0.36100
N4365       N  0.58780103  0.89390440  0.72430270    -0.90400
H4366       H  0.58485211  0.89706131  0.76882201     0.17300
H4367       H  0.65144853  0.85007886  0.74489074     0.17200
N4368       N  0.64783919  0.85315646  0.79015671    -0.89500
H4369       H  0.58052612  0.88087441  0.71446359     0.34600
H4370       H  0.59690154  0.90491481  0.71343698     0.39700
H4371       H  0.66438962  0.85929751  0.78708784     0.39300
H4372       H  0.64801420  0.83543983  0.78731644     0.34200
C4373       C  0.60461864  0.99705542  0.87395705    -0.27500
C4374       C  0.61721274  0.97980970  0.88594462    -0.15600
C4375       C  0.63439271  0.98690747  0.90110017     0.35100
C4376       C  0.63785498  0.01062330  0.90475059    -0.27000
C4377       C  0.62443782  0.02778909  0.89354332    -0.16200
C4378       C  0.60800003  0.02071182  0.87753842     0.36100
N4379       N  0.59410310  0.03739910  0.86562745    -0.90400
H4380       H  0.59149593  0.99217098  0.86183711     0.17300
H4381       H  0.65088910  0.01556921  0.91696210     0.17200
N4382       N  0.64800120  0.97027153  0.91320044    -0.89500
H4383       H  0.58198878  0.02932714  0.85527145     0.34600
H4384       H  0.60490148  0.04648634  0.85451608     0.39700
H4385       H  0.64583250  0.97304314  0.93080861     0.39300
H4386       H  0.66523522  0.97318081  0.90914136     0.34200
C4387       C  0.60785110  0.90543619  0.99206269    -0.27500
C4388       C  0.60950591  0.88291530  0.98394390    -0.15600
C4389       C  0.61043243  0.86479405  0.00034481     0.35100
C4390       C  0.61112820  0.86948374  0.02420113    -0.27000
C4391       C  0.61017718  0.89210743  0.03226764    -0.16200
C4392       C  0.60778794  0.91012069  0.01583494     0.36100
N4393       N  0.60480698  0.93337494  0.02329205    -0.90400
H4394       H  0.60554726  0.91944932  0.97994281     0.17300
H4395       H  0.61304422  0.85543191  0.03633031     0.17200
N4396       N  0.61076228  0.84144810  0.99275080    -0.89500
H4397       H  0.58919268  0.93953732  0.01683544     0.34600
H4398       H  0.61796251  0.94321944  0.01610901     0.39700
H4399       H  0.59665086  0.83311746  0.00004577     0.39300
H4400       H  0.62566311  0.83358260  0.99907482     0.34200
C4401       C  0.35165827  0.74726764  0.14715664    -0.27500
C4402       C  0.36224774  0.73032261  0.13322257    -0.15600
C4403       C  0.37667915  0.73779728  0.11525144     0.35100
C4404       C  0.37981873  0.76141922  0.11146191    -0.27000
C4405       C  0.36892147  0.77844834  0.12509705    -0.16200
C4406       C  0.35475583  0.77095012  0.14332191     0.36100
N4407       N  0.34301404  0.78679807  0.15803647    -0.90400
H4408       H  0.34047971  0.74212160  0.16114248     0.17300
H4409       H  0.39085403  0.76638814  0.09730672     0.17200
N4410       N  0.38789444  0.72197298  0.10009461    -0.89500
H4411       H  0.33228228  0.79718349  0.14797041     0.34600
H4412       H  0.35519708  0.79708922  0.16605844     0.39700
H4413       H  0.37542639  0.71197434  0.09211932     0.39300
H4414       H  0.39867078  0.71130668  0.10980136     0.34200
C4415       C  0.25571734  0.89311253  0.11819457    -0.27500
C4416       C  0.27202976  0.87804875  0.12843606    -0.15600
C4417       C  0.26389958  0.86040978  0.14278393     0.35100
C4418       C  0.24015760  0.85736409  0.14533545    -0.27000
C4419       C  0.22375900  0.87141463  0.13377204    -0.16200
C4420       C  0.23193911  0.88998610  0.12062563     0.36100
N4421       N  0.21672317  0.90566734  0.10918619    -0.90400
H4422       H  0.26144618  0.90721499  0.10745867     0.17300
H4423       H  0.23462870  0.84321525  0.15610329     0.17200
N4424       N  0.27915297  0.84477765  0.15426801    -0.89500
H4425       H  0.20599632  0.91321369  0.12148903     0.34600
H4426       H  0.20669839  0.89645420  0.09763198     0.39700
H4427       H  0.28989253  0.85422648  0.16496055     0.39300
H4428       H  0.28918967  0.83638535  0.14193833     0.34200
C4429       C  0.49036229  0.86758640  0.11916512    -0.27500
C4430       C  0.47356194  0.88151295  0.13015947    -0.15600
C4431       C  0.48127811  0.89871496  0.14510124     0.35100
C4432       C  0.50500770  0.90222978  0.14781833    -0.27000
C4433       C  0.52179955  0.88910583  0.13582428    -0.16200
C4434       C  0.51404581  0.87122611  0.12167036     0.36100
N4435       N  0.52961322  0.85678510  0.10917604    -0.90400
H4436       H  0.48510997  0.85394564  0.10778369     0.17300
H4437       H  0.51024853  0.91593144  0.15912043     0.17200
N4438       N  0.46558148  0.91339211  0.15713723    -0.89500
H4439       H  0.54052695  0.84857766  0.12086816     0.34600
H4440       H  0.53936475  0.86705787  0.09810886     0.39700
H4441       H  0.45502143  0.90316317  0.16743554     0.39300
H4442       H  0.45540368  0.92208073  0.14509597     0.34200
C4443       C  0.46750087  0.90854639  0.99701830    -0.27500
C4444       C  0.46823668  0.89103251  0.01365182    -0.15600
C4445       C  0.48692353  0.87545160  0.01386698     0.35100
C4446       C  0.50252260  0.87570477  0.99543397    -0.27000
C4447       C  0.49974371  0.89126163  0.97711053    -0.16200
C4448       C  0.48311344  0.90881458  0.97877751     0.36100
N4449       N  0.48141371  0.92639666  0.96154006    -0.90400
H4450       H  0.45375616  0.92119871  0.99724574     0.17300
H4451       H  0.51582280  0.86263278  0.99460042     0.17200
N4452       N  0.48904039  0.85839371  0.03168993    -0.89500
H4453       H  0.48320107  0.94229517  0.96957381     0.34600
H4454       H  0.46498695  0.92579028  0.95438314     0.39700
H4455       H  0.49233373  0.86701730  0.04701845     0.39300
H4456       H  0.50325220  0.84772576  0.02868950     0.34200
C4457       C  0.35879079  0.99719211  0.11599188    -0.27500
C4458       C  0.37018434  0.98040598  0.12972887    -0.15600
C4459       C  0.38385210  0.98804684  0.14793932     0.35100
C4460       C  0.38719178  0.01187934  0.15083790    -0.27000
C4461       C  0.37715980  0.02857013  0.13601382    -0.16200
C4462       C  0.36224549  0.02099337  0.11878077     0.36100
N4463       N  0.35131982  0.03724850  0.10361964    -0.90400
H4464       H  0.34766163  0.99178621  0.10220651     0.17300
H4465       H  0.39832199  0.01741489  0.16457656     0.17200
N4466       N  0.39482377  0.97175061  0.16300168    -0.89500
H4467       H  0.34049924  0.02886076  0.09213079     0.34600
H4468       H  0.36415515  0.04491466  0.09368026     0.39700
H4469       H  0.38189890  0.96324445  0.17209900     0.39300
H4470       H  0.40476807  0.98019074  0.17521846     0.34200
C4471       C  0.25540684  0.09577101  0.88524203    -0.27500
C4472       C  0.27208120  0.11270944  0.88015332    -0.15600
C4473       C  0.26418321  0.13442313  0.87257538     0.35100
C4474       C  0.24046714  0.13846573  0.87000885    -0.27000
C4475       C  0.22393187  0.12136101  0.87466314    -0.16200
C4476       C  0.23173466  0.09977540  0.88246047     0.36100
N4477       N  0.21621041  0.08124382  0.88659559    -0.90400
H4478       H  0.26076050  0.07886485  0.89104807     0.17300
H4479       H  0.23491490  0.15514285  0.86370513     0.17200
N4480       N  0.27966193  0.15269440  0.86730576    -0.89500
H4481       H  0.20719626  0.07803924  0.87145507     0.34600
H4482       H  0.20451186  0.08630942  0.89927408     0.39700
H4483       H  0.29060866  0.14733214  0.85409452     0.39300
H4484       H  0.28941708  0.15611522  0.88192277     0.34200
C4485       C  0.35090643  0.13800135  0.75425150    -0.27500
C4486       C  0.36374089  0.12648243  0.73697680    -0.15600
C4487       C  0.38015267  0.11008170  0.74404224     0.35100
C4488       C  0.38329141  0.10568444  0.76777943    -0.27000
C4489       C  0.37028468  0.11704479  0.78503092    -0.16200
C4490       C  0.35398142  0.13355296  0.77796448     0.36100
N4491       N  0.34020717  0.14542004  0.79470227    -0.90400
H4492       H  0.33815700  0.15069265  0.74929850     0.17300
H4493       H  0.39595137  0.09291463  0.77276801     0.17200
N4494       N  0.39345525  0.09775423  0.72726037    -0.89500
H4495       H  0.32826357  0.15623554  0.78663791     0.34600
H4496       H  0.35111765  0.15607023  0.80399067     0.39700
H4497       H  0.38219617  0.08726592  0.71818385     0.39300
H4498       H  0.40522902  0.08674650  0.73529525     0.34200
C4499       C  0.48944646  0.12023243  0.87100989    -0.27500
C4500       C  0.47367174  0.12287338  0.88943767    -0.15600
C4501       C  0.48260917  0.12656823  0.91150896     0.35100
C4502       C  0.50650040  0.12755801  0.91466697    -0.27000
C4503       C  0.52240146  0.12478261  0.89633329    -0.16200
C4504       C  0.51345396  0.12122353  0.87416604     0.36100
N4505       N  0.52815485  0.11880522  0.85457276    -0.90400
H4506       H  0.48300739  0.11674401  0.85393816     0.17300
H4507       H  0.51267473  0.13029662  0.93197368     0.17200
N4508       N  0.46795122  0.12825703  0.93123026    -0.89500
H4509       H  0.53899695  0.10468691  0.85733751     0.34600
H4510       H  0.53819954  0.13354954  0.85316226     0.39700
H4511       H  0.45843672  0.11315616  0.93259885     0.39300
H4512       H  0.45659357  0.14200305  0.92866760     0.34200
C4513       C  0.49291751  0.01558370  0.88328460    -0.27500
C4514       C  0.47537389  0.01332373  0.89970201    -0.15600
C4515       C  0.47753131  0.99667572  0.91719116     0.35100
C4516       C  0.49432273  0.97958836  0.91508703    -0.27000
C4517       C  0.50907637  0.97932807  0.89608280    -0.16200
C4518       C  0.50993955  0.99858622  0.88136752     0.36100
N4519       N  0.52660684  0.99994579  0.86328103    -0.90400
H4520       H  0.49205545  0.02902863  0.87036975     0.17300
H4521       H  0.49456805  0.96538276  0.92719526     0.17200
N4522       N  0.46168423  0.99629121  0.93609096    -0.89500
H4523       H  0.53580599  0.01513509  0.86537523     0.34600
H4524       H  0.51790552  0.00099099  0.84761851     0.39700
H4525       H  0.46419459  0.01137484  0.94538913     0.39300
H4526       H  0.46547476  0.98265513  0.94723791     0.34200
C4527       C  0.38929789  0.14175200  0.01807139    -0.27500
C4528       C  0.37876220  0.12786604  0.03516483    -0.15600
C4529       C  0.36357493  0.11072220  0.02795615     0.35100
C4530       C  0.36000415  0.10735279  0.00419754    -0.27000
C4531       C  0.37157885  0.12034831  0.98706530    -0.16200
C4532       C  0.38589708  0.13822376  0.99428921     0.36100
N4533       N  0.39753005  0.15225888  0.97762804    -0.90400
H4534       H  0.40079253  0.15529265  0.02324968     0.17300
H4535       H  0.34856216  0.09374383  0.99909360     0.17200
N4536       N  0.35241208  0.09625387  0.04458359    -0.89500
H4537       H  0.40802764  0.16419113  0.98576685     0.34600
H4538       H  0.38502279  0.16174026  0.96879650     0.39700
H4539       H  0.36509508  0.08628236  0.05257696     0.39300
H4540       H  0.34141118  0.08475372  0.03646560     0.34200
C4541       C  0.37070078  0.01172833  0.00291722    -0.27500
C4542       C  0.38675853  0.00897970  0.98503443    -0.15600
C4543       C  0.40483911  0.99287879  0.98784789     0.35100
C4544       C  0.40398687  0.97722567  0.00590420    -0.27000
C4545       C  0.38528021  0.97707179  0.02099345    -0.16200
C4546       C  0.36990691  0.99589400  0.02118775     0.36100
N4547       N  0.35247796  0.99777444  0.03862370    -0.90400
H4548       H  0.35753701  0.02490841  0.00166599     0.17300
H4549       H  0.41676838  0.96360687  0.00663294     0.17200
N4550       N  0.42380353  0.99131802  0.97227732    -0.89500
H4551       H  0.34226536  0.01236285  0.03582658     0.34600
H4552       H  0.36080187  0.00028499  0.05429204     0.39700
H4553       H  0.43052213  0.00775166  0.97002394     0.39300
H4554       H  0.41821350  0.98490904  0.95655270     0.34200
C4555       C  0.35936537  0.65228498  0.76642198    -0.27500
C4556       C  0.37396267  0.64287379  0.78356768    -0.15600
C4557       C  0.39298541  0.62969176  0.77664865     0.35100
C4558       C  0.39699495  0.62628517  0.75305999    -0.27000
C4559       C  0.38272972  0.63605980  0.73581930    -0.16200
C4560       C  0.36351728  0.64903694  0.74273313     0.36100
N4561       N  0.34852631  0.65916898  0.72588432    -0.90400
H4562       H  0.34459851  0.66248945  0.77148715     0.17300
H4563       H  0.41189787  0.61618793  0.74821936     0.17200
N4564       N  0.40854920  0.62030019  0.79342175    -0.89500
H4565       H  0.33558798  0.66881150  0.73385244     0.34600
H4566       H  0.34033830  0.64577692  0.71735573     0.39700
H4567       H  0.41677132  0.63406920  0.80130623     0.39300
H4568       H  0.42144084  0.61057914  0.78547653     0.34200
C4569       C  0.47611138  0.75640327  0.88370738    -0.27500
C4570       C  0.45614482  0.76090815  0.87095620    -0.15600
C4571       C  0.45526607  0.78025240  0.85632608     0.35100
C4572       C  0.47300307  0.79631042  0.85724057    -0.27000
C4573       C  0.49158253  0.79324088  0.87229858    -0.16200
C4574       C  0.49381124  0.77244210  0.88458269     0.36100
N4575       N  0.51323374  0.76805532  0.89902977    -0.90400
H4576       H  0.47736380  0.74118105  0.89442932     0.17300
H4577       H  0.47168966  0.81185226  0.84699518     0.17200
N4578       N  0.43607991  0.78392884  0.84124674    -0.89500
H4579       H  0.52107424  0.75281277  0.89358483     0.34600
H4580       H  0.50731516  0.76553905  0.91582877     0.39700
H4581       H  0.43629127  0.77060139  0.82929193     0.39300
H4582       H  0.43799773  0.79917409  0.83188385     0.34200
C4583       C  0.47995560  0.62374571  0.87575136    -0.27500
C4584       C  0.47261375  0.64648948  0.87877440    -0.15600
C4585       C  0.48975760  0.66371499  0.88110911     0.35100
C4586       C  0.51331016  0.65794740  0.88052411    -0.27000
C4587       C  0.52059750  0.63533928  0.87708839    -0.16200
C4588       C  0.50363924  0.61801572  0.87487828     0.36100
N4589       N  0.51061932  0.59454173  0.87150292    -0.90400
H4590       H  0.46723196  0.61036517  0.87431399     0.17300
H4591       H  0.52593529  0.67148911  0.88142373     0.17200
N4592       N  0.48342794  0.68743339  0.88333697    -0.89500
H4593       H  0.49630509  0.58392292  0.87004004     0.34600
H4594       H  0.51941686  0.58921829  0.88624575     0.39700
H4595       H  0.49078499  0.69656749  0.86970151     0.39300
H4596       H  0.49038407  0.69358052  0.89863911     0.34200
C4597       C  0.37966356  0.65902799  0.00209501    -0.27500
C4598       C  0.37209454  0.64272487  0.98569199    -0.15600
C4599       C  0.36299861  0.62195680  0.99410220     0.35100
C4600       C  0.36111195  0.61834338  0.01797309    -0.27000
C4601       C  0.36786739  0.63501097  0.03425357    -0.16200
C4602       C  0.37753616  0.65541278  0.02601337     0.36100
N4603       N  0.38422701  0.67297371  0.04170248    -0.90400
H4604       H  0.38687357  0.67519169  0.99643391     0.17300
H4605       H  0.35356509  0.60240157  0.02385377     0.17200
N4606       N  0.35530011  0.60431081  0.97900138    -0.89500
H4607       H  0.37490015  0.68788015  0.03775660     0.34600
H4608       H  0.40161371  0.67639915  0.03894368     0.39700
H4609       H  0.36903772  0.59935164  0.96848310     0.39300
H4610       H  0.34217651  0.61102623  0.96872924     0.34200
C4611       C  0.38059845  0.75298171  0.99503167    -0.27500
C4612       C  0.36312216  0.75499246  0.97855900    -0.15600
C4613       C  0.34645457  0.77240306  0.98083045     0.35100
C4614       C  0.34900755  0.78908253  0.99758305    -0.27000
C4615       C  0.36802350  0.78879570  0.01207977    -0.16200
C4616       C  0.38333069  0.76996734  0.01172579     0.36100
N4617       N  0.40259302  0.76892575  0.02693437    -0.90400
H4618       H  0.39336638  0.73941717  0.99376903     0.17300
H4619       H  0.33676929  0.80313735  0.99827131     0.17200
N4620       N  0.32740570  0.77390393  0.96553586    -0.89500
H4621       H  0.41756721  0.76845137  0.01699445     0.34600
H4622       H  0.40166631  0.75356159  0.03625531     0.39700
H4623       H  0.32817275  0.78977378  0.95707615     0.39300
H4624       H  0.31247489  0.77375043  0.97553745     0.34200
C4625       C  0.25492499  0.63841027  0.86963231    -0.27500
C4626       C  0.27141325  0.63213265  0.88647215    -0.15600
C4627       C  0.26366715  0.62256237  0.90718314     0.35100
C4628       C  0.23985879  0.62048719  0.91105139    -0.27000
C4629       C  0.22321762  0.62770327  0.89467364    -0.16200
C4630       C  0.23103533  0.63646820  0.87353441     0.36100
N4631       N  0.21491150  0.64342516  0.85616763    -0.90400
H4632       H  0.26073248  0.64585071  0.85355294     0.17300
H4633       H  0.23434022  0.61351781  0.92741997     0.17200
N4634       N  0.27983191  0.61624462  0.92475044    -0.89500
H4635       H  0.22352327  0.64877913  0.84131503     0.34600
H4636       H  0.20603831  0.65780568  0.86233041     0.39700
H4637       H  0.28961587  0.60249855  0.91851939     0.39300
H4638       H  0.27130179  0.61020721  0.93939165     0.34200
C4639       C  0.15260020  0.99451200  0.88502724    -0.27500
C4640       C  0.13693587  0.97753879  0.87760149    -0.15600
C4641       C  0.11611408  0.98522952  0.86774053     0.35100
C4642       C  0.11194440  0.00897301  0.86488395    -0.27000
C4643       C  0.12793535  0.02580209  0.87172906    -0.16200
C4644       C  0.14839367  0.01819461  0.88222996     0.36100
N4645       N  0.16569524  0.03396074  0.88935081    -0.90400
H4646       H  0.16873058  0.98943738  0.89281922     0.17300
H4647       H  0.09604437  0.01431261  0.85677477     0.17200
N4648       N  0.09889344  0.96951056  0.86038895    -0.89500
H4649       H  0.15852656  0.04502571  0.90157373     0.34600
H4650       H  0.17085386  0.04362674  0.87510980     0.39700
H4651       H  0.09397096  0.95947361  0.87448135     0.39300
H4652       H  0.10599480  0.95884377  0.84781141     0.34200
C4653       C  0.13620614  0.89245804  0.99871926    -0.27500
C4654       C  0.13150614  0.87488247  0.98270605    -0.15600
C4655       C  0.12392585  0.85361046  0.99126387     0.35100
C4656       C  0.12159594  0.85028249  0.01510041    -0.27000
C4657       C  0.12676541  0.86763729  0.03129911    -0.16200
C4658       C  0.13385733  0.88914399  0.02264958     0.36100
N4659       N  0.13872747  0.90793044  0.03756919    -0.90400
H4660       H  0.14229071  0.90892945  0.99256831     0.17300
H4661       H  0.11604772  0.83352512  0.02094688     0.17200
N4662       N  0.11955346  0.83468504  0.97632200    -0.89500
H4663       H  0.15205292  0.90301179  0.04857032     0.34600
H4664       H  0.12407198  0.91141916  0.04738618     0.39700
H4665       H  0.13452211  0.83105152  0.96702107     0.39300
H4666       H  0.10665906  0.83954896  0.96480725     0.34200
C4667       C  0.26214013  0.88222662  0.01468962    -0.27500
C4668       C  0.28199959  0.86867118  0.01217954    -0.15600
C4669       C  0.28270023  0.85146504  0.99523770     0.35100
C4670       C  0.26512269  0.85056320  0.97899266    -0.27000
C4671       C  0.24697453  0.86651392  0.97937043    -0.16200
C4672       C  0.24453529  0.88127578  0.99836119     0.36100
N4673       N  0.22506966  0.89629601  0.00041913    -0.90400
H4674       H  0.26104658  0.89490404  0.02821852     0.17300
H4675       H  0.26649354  0.83837508  0.96503846     0.17200
N4676       N  0.30176823  0.83571748  0.99391720    -0.89500
H4677       H  0.23096363  0.91320493  0.00080751     0.34600
H4678       H  0.21701973  0.89282411  0.01612274     0.39700
H4679       H  0.29977989  0.82438216  0.98019964     0.39300
H4680       H  0.30157458  0.82575432  0.00890711     0.34200
C4681       C  0.26791428  0.00100646  0.88612365    -0.27500
C4682       C  0.28905574  0.99673968  0.87530858    -0.15600
C4683       C  0.29145675  0.97731398  0.86111273     0.35100
C4684       C  0.27412864  0.96089659  0.86079291    -0.27000
C4685       C  0.25429170  0.96362819  0.87420206    -0.16200
C4686       C  0.25042962  0.98463371  0.88559976     0.36100
N4687       N  0.22941647  0.98894853  0.89771126    -0.90400
H4688       H  0.26543840  0.01632513  0.89634996     0.17300
H4689       H  0.27690468  0.94531408  0.85106239     0.17200
N4690       N  0.31170244  0.97373375  0.84755780    -0.89500
H4691       H  0.22200776  0.00392667  0.89096493     0.34600
H4692       H  0.23333336  0.99190920  0.91495850     0.39700
H4693       H  0.30662512  0.97213974  0.83042942     0.39300
H4694       H  0.31924690  0.95816921  0.85261658     0.34200
C4695       C  0.25228480  0.77673717  0.92013422    -0.27500
C4696       C  0.23580527  0.77659624  0.90274761    -0.15600
C4697       C  0.23283694  0.75649035  0.88965092     0.35100
C4698       C  0.25022838  0.73965753  0.89005901    -0.27000
C4699       C  0.26974246  0.74284315  0.90369303    -0.16200
C4700       C  0.26933261  0.75987236  0.92069205     0.36100
N4701       N  0.28744145  0.76147556  0.93704535    -0.90400
H4702       H  0.25369378  0.79136092  0.93148844     0.17300
H4703       H  0.24976071  0.72567353  0.87787218     0.17200
N4704       N  0.21355773  0.75426981  0.87451663    -0.89500
H4705       H  0.28005709  0.76091524  0.95342490     0.34600
H4706       H  0.29500653  0.77755696  0.93480258     0.39700
H4707       H  0.19879838  0.75378965  0.88477066     0.39300
H4708       H  0.21431605  0.73860063  0.86584977     0.34200
C4709       C  0.14559460  0.75740962  0.87523600    -0.27500
C4710       C  0.13268730  0.77472349  0.88671408    -0.15600
C4711       C  0.11551771  0.76763109  0.90216555     0.35100
C4712       C  0.11209623  0.74385675  0.90612188    -0.27000
C4713       C  0.12547721  0.72662395  0.89512838    -0.16200
C4714       C  0.14225097  0.73370122  0.87923314     0.36100
N4715       N  0.15639440  0.71698160  0.86773747    -0.90400
H4716       H  0.15879821  0.76231482  0.86307908     0.17300
H4717       H  0.09896822  0.73879942  0.91830191     0.17200
N4718       N  0.10175787  0.78440846  0.91398922    -0.89500
H4719       H  0.16868078  0.72504357  0.85742076     0.34600
H4720       H  0.14583403  0.70783258  0.85660767     0.39700
H4721       H  0.11255402  0.79327741  0.92512618     0.39300
H4722       H  0.08945787  0.77636775  0.92430272     0.34200
C4723       C  0.11676981  0.88029500  0.77292771    -0.27500
C4724       C  0.13901944  0.88299838  0.78152409    -0.15600
C4725       C  0.15720408  0.88727171  0.76578461     0.35100
C4726       C  0.15282776  0.88851039  0.74198411    -0.27000
C4727       C  0.13062066  0.88593595  0.73340258    -0.16200
C4728       C  0.11238676  0.88185314  0.74906702     0.36100
N4729       N  0.08936650  0.87959078  0.74058831    -0.90400
H4730       H  0.10290554  0.87646410  0.78475384     0.17300
H4731       H  0.16661224  0.89272897  0.73018825     0.17200
N4732       N  0.18012129  0.89076905  0.77414183    -0.89500
H4733       H  0.07790670  0.87670288  0.75414445     0.34600
H4734       H  0.08897347  0.86497334  0.73025151     0.39700
H4735       H  0.17990773  0.90570269  0.78404494     0.39300
H4736       H  0.19150234  0.89370647  0.76053711     0.34200
C4737       C  0.36032987  0.76614589  0.64896231    -0.27500
C4738       C  0.37544510  0.78248387  0.63900996    -0.15600
C4739       C  0.39377818  0.77439855  0.62560405     0.35100
C4740       C  0.39729494  0.75049535  0.62352739    -0.27000
C4741       C  0.38300266  0.73408143  0.63464187    -0.16200
C4742       C  0.36402271  0.74220747  0.64716216     0.36100
N4743       N  0.34883251  0.72634805  0.65836470    -0.90400
H4744       H  0.34585575  0.77207753  0.65909446     0.17300
H4745       H  0.41185469  0.74476128  0.61342557     0.17200
N4746       N  0.40938468  0.79030182  0.61504972    -0.89500
H4747       H  0.33533064  0.73515002  0.66641250     0.34600
H4748       H  0.35808839  0.71816116  0.67142749     0.39700
H4749       H  0.40024026  0.79945853  0.60253530     0.39300
H4750       H  0.42252179  0.78153111  0.60642311     0.34200
C4751       C  0.49360689  0.89214874  0.65670841    -0.27500
C4752       C  0.47672559  0.88179343  0.64260538    -0.15600
C4753       C  0.48439185  0.86912008  0.62350231     0.35100
C4754       C  0.50806015  0.86628186  0.61962165    -0.27000
C4755       C  0.52486626  0.87540342  0.63454117    -0.16200
C4756       C  0.51730027  0.88902621  0.65298208     0.36100
N4757       N  0.53308253  0.89911485  0.66873971    -0.90400
H4758       H  0.48846886  0.90234819  0.67138153     0.17300
H4759       H  0.51331040  0.85596580  0.60505853     0.17200
N4760       N  0.46873502  0.85839600  0.60806718    -0.89500
H4761       H  0.54404643  0.90989749  0.65948898     0.34600
H4762       H  0.54285183  0.88600941  0.67632633     0.39700
H4763       H  0.45808020  0.87106382  0.60098931     0.39300
H4764       H  0.45870656  0.84677007  0.61738740     0.34200
C4765       C  0.36168452  0.76877640  0.75285171    -0.27500
C4766       C  0.37936162  0.78489753  0.75472032    -0.15600
C4767       C  0.39517952  0.78301019  0.77284536     0.35100
C4768       C  0.39129127  0.76718563  0.79039446    -0.27000
C4769       C  0.37179813  0.75330167  0.79023460    -0.16200
C4770       C  0.35754953  0.75311196  0.77061152     0.36100
N4771       N  0.33778676  0.73873399  0.76901465    -0.90400
H4772       H  0.34959946  0.76983329  0.73876069     0.17300
H4773       H  0.40277879  0.76686588  0.80498454     0.17200
N4774       N  0.41442906  0.79807661  0.77424607    -0.89500
H4775       H  0.32673939  0.74242434  0.78270352     0.34600
H4776       H  0.34315055  0.72159480  0.77015711     0.39700
H4777       H  0.42934835  0.78801317  0.77497635     0.39300
H4778       H  0.41311750  0.80719275  0.78963480     0.34200
C4779       C  0.48683282  0.88629296  0.75247030    -0.27500
C4780       C  0.46990936  0.86934276  0.75446697    -0.15600
C4781       C  0.47258984  0.85172751  0.77104484     0.35100
C4782       C  0.48956428  0.85376083  0.78766633    -0.27000
C4783       C  0.50384390  0.87298419  0.78797667    -0.16200
C4784       C  0.50387388  0.88837939  0.76920562     0.36100
N4785       N  0.51958930  0.90729114  0.76834413    -0.90400
H4786       H  0.48552123  0.89931057  0.73916525     0.17300
H4787       H  0.49032971  0.84123925  0.80150265     0.17200
N4788       N  0.45796658  0.83209716  0.77200398    -0.89500
H4789       H  0.51635183  0.91771047  0.75402272     0.34600
H4790       H  0.53606044  0.90041410  0.76600406     0.39700
H4791       H  0.45756410  0.82459684  0.75572663     0.39300
H4792       H  0.44144855  0.83728665  0.77667717     0.34200
C4793       C  0.39110443  0.99994404  0.65335249    -0.27500
C4794       C  0.37694281  0.98345157  0.64266040    -0.15600
C4795       C  0.36028601  0.99116239  0.62708901     0.35100
C4796       C  0.35685627  0.01486520  0.62389099    -0.27000
C4797       C  0.36964396  0.03145760  0.63609967    -0.16200
C4798       C  0.38764128  0.02374177  0.65013954     0.36100
N4799       N  0.40197207  0.03983165  0.66167820    -0.90400
H4800       H  0.40456231  0.99439974  0.66497240     0.17300
H4801       H  0.34330897  0.02019925  0.61228386     0.17200
N4802       N  0.34608885  0.97513886  0.61525694    -0.89500
H4803       H  0.41893785  0.03669822  0.65661736     0.34600
H4804       H  0.40077634  0.03668946  0.67934090     0.39700
H4805       H  0.34811701  0.97790270  0.59762166     0.39300
H4806       H  0.32896174  0.97867052  0.61950845     0.34200
C4807       C  0.37852608  0.99079308  0.75811855    -0.27500
C4808       C  0.36516911  0.97109511  0.76144309    -0.15600
C4809       C  0.35027932  0.96984912  0.78052239     0.35100
C4810       C  0.35196271  0.98621835  0.79779965    -0.27000
C4811       C  0.36795063  0.00396133  0.79614444    -0.16200
C4812       C  0.37993204  0.00740012  0.77535231     0.36100
N4813       N  0.39468534  0.02674233  0.77224102    -0.90400
H4814       H  0.38936463  0.99243953  0.74304835     0.17300
H4815       H  0.34184708  0.98412309  0.81325311     0.17200
N4816       N  0.33426962  0.95142258  0.78300134    -0.89500
H4817       H  0.38916891  0.03580219  0.75769294     0.34600
H4818       H  0.41131571  0.02064729  0.76906675     0.39700
H4819       H  0.31780087  0.95853996  0.78444486     0.39300
H4820       H  0.33791269  0.94267891  0.79831467     0.34200
C4821       C  0.28164160  0.90320186  0.77439839    -0.27500
C4822       C  0.28153644  0.88715962  0.75658484    -0.15600
C4823       C  0.26315539  0.87157009  0.75469161     0.35100
C4824       C  0.24724471  0.87012971  0.77271129    -0.27000
C4825       C  0.24960054  0.88388762  0.79222189    -0.16200
C4826       C  0.26586126  0.90161909  0.79233595     0.36100
N4827       N  0.26715188  0.91731190  0.81115206    -0.90400
H4828       H  0.29518203  0.91582417  0.77542945     0.17300
H4829       H  0.23422307  0.85694729  0.77235062     0.17200
N4830       N  0.26179957  0.85597881  0.73567221    -0.89500
H4831       H  0.26518531  0.93397589  0.80464003     0.34600
H4832       H  0.28354626  0.91594485  0.81831876     0.39700
H4833       H  0.25852646  0.86578644  0.72092684     0.39300
H4834       H  0.24786024  0.84492721  0.73763618     0.34200
C4835       C  0.25760492  0.87519710  0.65357177    -0.27500
C4836       C  0.27439245  0.89006099  0.64411260    -0.15600
C4837       C  0.26674569  0.90898031  0.63101202     0.35100
C4838       C  0.24287662  0.91233924  0.62753814    -0.27000
C4839       C  0.22611561  0.89754202  0.63726151    -0.16200
C4840       C  0.23386313  0.87880140  0.65040344     0.36100
N4841       N  0.21778547  0.86346666  0.66085752    -0.90400
H4842       H  0.26286904  0.86055536  0.66388384     0.17300
H4843       H  0.23738138  0.92699396  0.61738583     0.17200
N4844       N  0.28301390  0.92502133  0.62177141    -0.89500
H4845       H  0.22054035  0.86356356  0.67860142     0.34600
H4846       H  0.22127763  0.84690273  0.65488474     0.39700
H4847       H  0.29089578  0.93313359  0.63561972     0.39300
H4848       H  0.27459711  0.93792534  0.61241217     0.34200
loop_ 
_geom_bond_atom_site_label_1 
_geom_bond_atom_site_label_2 
_geom_bond_distance 
_geom_bond_site_symmetry_2 
_ccdc_geom_bond_type 
N1            N2   1.316       .  A
N1            N7   1.308       .  A
N1          Mn30   2.177       .  S
N2            C9   1.354       .  A
N3            N5   1.309       .  A
N3            N4   1.319       .  A
N3          Mn19   2.178       .  S
N4           C10   1.353       .  A
N5            N6   1.314       .  A
N5          Mn30   2.167       .  S
N6           C10   1.351       .  A
N7            N8   1.315       .  A
N7          Mn19   2.154       .  S
N8            C9   1.348       .  A
C9         C4822   1.464       .  S
C10        C4766   1.466       .  S
N11          N17   1.317       .  A
N11          N12   1.339       .  A
N11         Mn41   2.315       .  S
N12          C20   1.377       .  A
N13          N14   1.309       .  A
N13          N15   1.318       .  A
N13         Mn19   2.142       .  S
N14          C21   1.337       .  A
N15          N16   1.340       .  A
N15         Mn41   2.317       .  S
N16          C21   1.377       .  A
N17          N18   1.306       .  A
N17         Mn19   2.120       .  S
N18          C20   1.333       .  A
Mn19        Cl43   2.508       .  S
C20        C4738   1.500       .  S
C21        C4836   1.506       .  S
N22          N23   1.317       .  A
N22          N28   1.308       .  A
N22         Mn30   2.177       .  S
N23          C31   1.353       .  A
N24          N26   1.309       .  A
N24          N25   1.320       .  A
N24         Mn42   2.181       .  S
N25          C32   1.354       .  A
N26          N27   1.314       .  A
N26         Mn30   2.165       .  S
N27          C32   1.350       .  A
N28          N29   1.316       .  A
N28         Mn42   2.170       .  S
N29          C31   1.351       .  A
Mn30        Cl43   2.562       .  S
C31        C4780   1.470       .  S
C32        C4808   1.469       .  S
N33          N34   1.334       .  A
N33          N39   1.319       .  A
N33         Mn41   2.294       .  S
N34          C44   1.371       .  A
N35          N36   1.309       .  A
N35          N37   1.318       .  A
N35         Mn42   2.138       .  S
N36          C45   1.336       .  A
N37          N38   1.338       .  A
N37         Mn41   2.312       .  S
N38          C45   1.376       .  A
N39          N40   1.310       .  A
N39         Mn42   2.141       .  S
N40          C44   1.338       .  A
Mn41        Cl43   2.571       .  S
Mn42        Cl43   2.506       .  S
C44        C4794   1.492       .  S
C45        C4752   1.505       .  S
N46          N47   1.318       .  A
N46          N52   1.309       .  A
N46         Mn75   2.170       .  S
N47          C54   1.351       .  A
N48          N50   1.310       .  A
N48          N49   1.317       .  A
N48         Mn64   2.181       .  S
N49          C55   1.354       .  A
N50          N51   1.318       .  A
N50         Mn75   2.173       .  S
N51          C55   1.349       .  A
N52          N53   1.315       .  A
N52         Mn64   2.167       .  S
N53          C54   1.350       .  A
C54        C4825   1.463       .  S
C55        C4696   1.470       .  S
N56          N62   1.309       .  A
N56          N57   1.320       .  A
N56         Mn86   2.187       .  S
N57          C65   1.354       .  A
N58          N59   1.317       .  A
N58          N60   1.310       .  A
N58         Mn64   2.178       .  S
N59          C66   1.353       .  A
N60          N61   1.318       .  A
N60         Mn86   2.185       .  S
N61          C66   1.353       .  A
N62          N63   1.314       .  A
N62         Mn64   2.169       .  S
N63          C65   1.351       .  A
Mn64        Cl88   2.550       .  S
C65        C4671   1.474       .  S
C66        C4685   1.474       .  S
N67          N68   1.308       .  A
N67          N73   1.316       .  A
N67         Mn75   2.129       .  S
N68          C76   1.335       .  A
N69          N71   1.319       .  A
N69          N70   1.336       .  A
N69         Mn87   2.307       .  S
N70          C77   1.372       .  A
N71          N72   1.311       .  A
N71         Mn75   2.145       .  S
N72          C77   1.338       .  A
N73          N74   1.341       .  A
N73         Mn87   2.325       .  S
N74          C76   1.379       .  A
Mn75        Cl88   2.520       .  S
C76        C4710   1.511       .  S
C77        C4724   1.493       .  S
N78          N79   1.311       .  A
N78          N84   1.318       .  A
N78         Mn86   2.151       .  S
N79          C89   1.340       .  A
N80          N81   1.337       .  A
N80          N82   1.319       .  A
N80         Mn87   2.307       .  S
N81          C90   1.374       .  A
N82          N83   1.311       .  A
N82         Mn86   2.148       .  S
N83          C90   1.338       .  A
N84          N85   1.338       .  A
N84         Mn87   2.315       .  S
N85          C89   1.376       .  A
Mn86        Cl88   2.520       .  S
Mn87        Cl88   2.575       .  S
C89        C4640   1.512       .  S
C90        C4654   1.498       .  S
N91          N92   1.316       .  A
N91          N97   1.310       .  A
N91        Mn120   2.170       .  S
N92          C99   1.350       .  A
N93          N95   1.308       .  A
N93          N94   1.316       .  A
N93        Mn109   2.174       .  S
N94         C100   1.353       .  A
N95          N96   1.317       .  A
N95        Mn120   2.166       .  S
N96         C100   1.350       .  A
N97          N98   1.318       .  A
N97        Mn109   2.186       .  S
N98          C99   1.354       .  A
C99        C4570   1.472       .  S
C100       C4612   1.467       .  S
N101        N107   1.311       .  A
N101        N102   1.320       .  A
N101       Mn131   2.179       .  S
N102        C110   1.352       .  A
N103        N104   1.314       .  A
N103        N105   1.309       .  A
N103       Mn109   2.172       .  S
N104        C111   1.351       .  A
N105        N106   1.318       .  A
N105       Mn131   2.166       .  S
N106        C111   1.350       .  A
N107        N108   1.315       .  A
N107       Mn109   2.180       .  S
N108        C110   1.352       .  A
Mn109      Cl133   2.562       .  S
C110       C4699   1.470       .  S
C111       C4769   1.465       .  S
N112        N113   1.309       .  A
N112        N118   1.318       .  A
N112       Mn120   2.140       .  S
N113        C121   1.336       .  A
N114        N116   1.316       .  A
N114        N115   1.340       .  A
N114       Mn132   2.316       .  S
N115        C122   1.377       .  A
N116        N117   1.309       .  A
N116       Mn120   2.137       .  S
N117        C122   1.336       .  A
N118        N119   1.339       .  A
N118       Mn132   2.314       .  S
N119        C121   1.378       .  A
Mn120      Cl133   2.505       .  S
C121       C4598   1.509       .  S
C122       C4584   1.508       .  S
N123        N124   1.310       .  A
N123        N129   1.319       .  A
N123       Mn131   2.144       .  S
N124        C134   1.338       .  A
N125        N126   1.339       .  A
N125        N127   1.318       .  A
N125       Mn132   2.316       .  S
N126        C135   1.377       .  A
N127        N128   1.307       .  A
N127       Mn131   2.121       .  S
N128        C135   1.332       .  A
N129        N130   1.334       .  A
N129       Mn132   2.300       .  S
N130        C134   1.372       .  A
Mn131      Cl133   2.513       .  S
Mn132      Cl133   2.577       .  S
C134       C4556   1.495       .  S
C135       C4626   1.495       .  S
N136        N137   1.320       .  A
N136        N142   1.310       .  A
N136       Mn165   2.190       .  S
N137        C144   1.355       .  A
N138        N140   1.310       .  A
N138        N139   1.316       .  A
N138       Mn154   2.183       .  S
N139        C145   1.352       .  A
N140        N141   1.320       .  A
N140       Mn165   2.184       .  S
N141        C145   1.353       .  A
N142        N143   1.315       .  A
N142       Mn154   2.170       .  S
N143        C144   1.350       .  A
C144       C4682   1.474   1_545  S
C145       C4542   1.476       .  S
N146        N152   1.310       .  A
N146        N147   1.319       .  A
N146       Mn176   2.181       .  S
N147        C155   1.352       .  A
N148        N149   1.316       .  A
N148        N150   1.310       .  A
N148       Mn154   2.178       .  S
N149        C156   1.352       .  A
N150        N151   1.317       .  A
N150       Mn176   2.165       .  S
N151        C156   1.350       .  A
N152        N153   1.316       .  A
N152       Mn154   2.180       .  S
N153        C155   1.353       .  A
Mn154      Cl178   2.553       .  S
C155       C4514   1.470       .  S
C156       C4811   1.468       .  S
N157        N158   1.310       .  A
N157        N163   1.318       .  A
N157       Mn165   2.146       .  S
N158        C166   1.338       .  A
N159        N161   1.319       .  A
N159        N160   1.336       .  A
N159       Mn177   2.307       .  S
N160        C167   1.374       .  A
N161        N162   1.311       .  A
N161       Mn165   2.149       .  S
N162        C167   1.340       .  A
N163        N164   1.338       .  A
N163       Mn177   2.311       .  S
N164        C166   1.376       .  A
Mn165      Cl178   2.519       .  S
C166       C4531   1.507       .  S
C167       C4472   1.506       .  S
N168        N169   1.313       .  A
N168        N174   1.318       .  A
N168       Mn176   2.150       .  S
N169        C179   1.341       .  A
N170        N171   1.340       .  A
N170        N172   1.318       .  A
N170       Mn177   2.326       .  S
N171        C180   1.378       .  A
N172        N173   1.309       .  A
N172       Mn176   2.125       .  S
N173        C180   1.333       .  A
N174        N175   1.337       .  A
N174       Mn177   2.310       .  S
N175        C179   1.374       .  A
Mn176      Cl178   2.521       .  S
Mn177      Cl178   2.576       .  S
C179       C4489   1.509       .  S
C180       C4500   1.497       .  S
N181        N182   1.317       .  A
N181        N187   1.310       .  A
N181       Mn210   2.161       .  S
N182        C189   1.348       .  A
N183        N185   1.310       .  A
N183        N184   1.315       .  A
N183       Mn199   2.169       .  S
N184        C190   1.351       .  A
N185        N186   1.320       .  A
N185       Mn210   2.188       .  S
N186        C190   1.354       .  A
N187        N188   1.314       .  A
N187       Mn199   2.176       .  S
N188        C189   1.352       .  A
C189       C4615   1.461       .  S
C190       C4444   1.473       .  S
N191        N197   1.309       .  A
N191        N192   1.319       .  A
N191       Mn221   2.167       .  S
N192        C200   1.350       .  A
N193        N194   1.316       .  A
N193        N195   1.309       .  A
N193       Mn199   2.176       .  S
N194        C201   1.352       .  A
N195        N196   1.320       .  A
N195       Mn221   2.178       .  S
N196        C201   1.353       .  A
N197        N198   1.315       .  A
N197       Mn199   2.177       .  S
N198        C200   1.353       .  A
Mn199      Cl223   2.558       .  S
C200       C4545   1.468       .  S
C201       C4668   1.472       .  S
N202        N203   1.308       .  A
N202        N208   1.318       .  A
N202       Mn210   2.131       .  S
N203        C211   1.335       .  A
N204        N206   1.319       .  A
N204        N205   1.336       .  A
N204       Mn222   2.304       .  S
N205        C212   1.373       .  A
N206        N207   1.311       .  A
N206       Mn210   2.157       .  S
N207        C212   1.341       .  A
N208        N209   1.339       .  A
N208       Mn222   2.317       .  S
N209        C211   1.377       .  A
Mn210      Cl223   2.515       .  S
C211       C4430   1.504       .  S
C212       C4405   1.507       .  S
N213        N214   1.307       .  A
N213        N219   1.318       .  A
N213       Mn221   2.130       .  S
N214        C224   1.335       .  A
N215        N216   1.339       .  A
N215        N217   1.318       .  A
N215       Mn222   2.310       .  S
N216        C225   1.377       .  A
N217        N218   1.307       .  A
N217       Mn221   2.137       .  S
N218        C225   1.335       .  A
N219        N220   1.336       .  A
N219       Mn222   2.303       .  S
N220        C224   1.374       .  A
Mn221      Cl223   2.513       .  S
Mn222      Cl223   2.573       .  S
C224       C4416   1.496       .  S
C225       C4458   1.505       .  S
N226        N227   1.317       .  A
N226        N232   1.310       .  A
N226       Mn255   2.162       .  S
N227        C234   1.349       .  A
N228        N230   1.310       .  A
N228        N229   1.315       .  A
N228       Mn244   2.177       .  S
N229        C235   1.352       .  A
N230        N231   1.319       .  A
N230       Mn255   2.169       .  S
N231        C235   1.350       .  A
N232        N233   1.317       .  A
N232       Mn244   2.181       .  S
N233        C234   1.352       .  A
C234       C4783   1.464       .  S
C235       C4517   1.466       .  S
N236        N242   1.311       .  A
N236        N237   1.318       .  A
N236       Mn266   2.180       .  S
N237        C245   1.352       .  A
N238        N239   1.315       .  A
N238        N240   1.310       .  A
N238       Mn244   2.169       .  S
N239        C246   1.350       .  A
N240        N241   1.319       .  A
N240       Mn266   2.187       .  S
N241        C246   1.354       .  A
N242        N243   1.317       .  A
N242       Mn244   2.185       .  S
N243        C245   1.354       .  A
Mn244      Cl268   2.550       .  S
C245       C4447   1.473       .  S
C246       C4573   1.473       .  S
N247        N248   1.305       .  A
N247        N253   1.316       .  A
N247       Mn255   2.125       .  S
N248        C256   1.334       .  A
N249        N251   1.317       .  A
N249        N250   1.341       .  A
N249       Mn267   2.326       .  S
N250        C257   1.379       .  A
N251        N252   1.310       .  A
N251       Mn255   2.138       .  S
N252        C257   1.337       .  A
N253        N254   1.341       .  A
N253       Mn267   2.315       .  S
N254        C256   1.378       .  A
Mn255      Cl268   2.514       .  S
C256       C4374   1.505       .  S
C257       C4360   1.511       .  S
N258        N259   1.309       .  A
N258        N264   1.318       .  A
N258       Mn266   2.142       .  S
N259        C269   1.338       .  A
N260        N261   1.338       .  A
N260        N262   1.320       .  A
N260       Mn267   2.321       .  S
N261        C270   1.375       .  A
N262        N263   1.313       .  A
N262       Mn266   2.149       .  S
N263        C270   1.336       .  A
N264        N265   1.337       .  A
N264       Mn267   2.308       .  S
N265        C269   1.374       .  A
Mn266      Cl268   2.520       .  S
Mn267      Cl268   2.579       .  S
C269       C4346   1.504       .  S
C270       C4388   1.497       .  S
N271        N272   1.338       .  A
N271        N277   1.317       .  A
N271       Mn300   2.303       .  S
N272        C279   1.375       .  A
N273        N275   1.318       .  A
N273        N274   1.310       .  A
N273       Mn289   2.134       .  S
N274        C280   1.337       .  A
N275        N276   1.334       .  A
N275       Mn300   2.303       .  S
N276        C280   1.372       .  A
N277        N278   1.305       .  A
N277       Mn289   2.119       .  S
N278        C279   1.332       .  A
C279       C4332   1.490       .  S
C280       C4262   1.493       .  S
N281        N287   1.310       .  A
N281        N282   1.316       .  A
N281       Mn311   2.178       .  S
N282        C290   1.352       .  A
N283        N284   1.318       .  A
N283        N285   1.309       .  A
N283       Mn289   2.166       .  S
N284        C291   1.349       .  A
N285        N286   1.316       .  A
N285       Mn311   2.184       .  S
N286        C291   1.354       .  A
N287        N288   1.318       .  A
N287       Mn289   2.173       .  S
N288        C290   1.350       .  A
Mn289      Cl313   2.512       .  S
C290       C4248   1.469       .  S
C291       C4318   1.468       .  S
N292        N293   1.336       .  A
N292        N298   1.318       .  A
N292       Mn300   2.305       .  S
N293        C301   1.374       .  A
N294        N296   1.315       .  A
N294        N295   1.306       .  A
N294       Mn312   2.130       .  S
N295        C302   1.335       .  A
N296        N297   1.338       .  A
N296       Mn300   2.301       .  S
N297        C302   1.376       .  A
N298        N299   1.314       .  A
N298       Mn312   2.157       .  S
N299        C301   1.341       .  A
Mn300      Cl313   2.581       .  S
C301       C4234   1.506       .  S
C302       C4290   1.503       .  S
N303        N304   1.316       .  A
N303        N309   1.309       .  A
N303       Mn311   2.175       .  S
N304        C314   1.353       .  A
N305        N306   1.315       .  A
N305        N307   1.310       .  A
N305       Mn312   2.164       .  S
N306        C315   1.349       .  A
N307        N308   1.320       .  A
N307       Mn311   2.191       .  S
N308        C315   1.356       .  A
N309        N310   1.317       .  A
N309       Mn312   2.177       .  S
N310        C314   1.351       .  A
Mn311      Cl313   2.555       .  S
Mn312      Cl313   2.503       .  S
C314       C4304   1.470       .  S
C315       C4276   1.473       .  S
N316        N317   1.320       .  A
N316        N322   1.310       .  A
N316       Mn345   2.184       .  S
N317        C324   1.353       .  A
N318        N320   1.311       .  A
N318        N319   1.315       .  A
N318       Mn334   2.179       .  S
N319        C325   1.351       .  A
N320        N321   1.319       .  A
N320       Mn345   2.178       .  S
N321        C325   1.351       .  A
N322        N323   1.314       .  A
N322       Mn334   2.175       .  S
N323        C324   1.351       .  A
C324       C4178   1.469       .  S
C325       C4164   1.468       .  S
N326        N332   1.310       .  A
N326        N327   1.316       .  A
N326       Mn356   2.169       .  S
N327        C335   1.350       .  A
N328        N329   1.319       .  A
N328        N330   1.310       .  A
N328       Mn334   2.187       .  S
N329        C336   1.356       .  A
N330        N331   1.316       .  A
N330       Mn356   2.168       .  S
N331        C336   1.348       .  A
N332        N333   1.318       .  A
N332       Mn334   2.182       .  S
N333        C335   1.353       .  A
Mn334      Cl358   2.553       .  S
C335       C4192   1.470       .  S
C336       C4321   1.468       .  S
N337        N338   1.311       .  A
N337        N343   1.319       .  A
N337       Mn345   2.152       .  S
N338        C346   1.340       .  A
N339        N341   1.318       .  A
N339        N340   1.339       .  A
N339       Mn357   2.307       .  S
N340        C347   1.375       .  A
N341        N342   1.307       .  A
N341       Mn345   2.135       .  S
N342        C347   1.334       .  A
N343        N344   1.336       .  A
N343       Mn357   2.305       .  S
N344        C346   1.374       .  A
Mn345      Cl358   2.518       .  S
C346       C4153   1.505       .  S
C347       C4139   1.494       .  S
N348        N349   1.309       .  A
N348        N354   1.316       .  A
N348       Mn356   2.133       .  S
N349        C359   1.335       .  A
N350        N351   1.337       .  A
N350        N352   1.318       .  A
N350       Mn357   2.318       .  S
N351        C360   1.375       .  A
N352        N353   1.313       .  A
N352       Mn356   2.150       .  S
N353        C360   1.341       .  A
N354        N355   1.339       .  A
N354       Mn357   2.313       .  S
N355        C359   1.377       .  A
Mn356      Cl358   2.517       .  S
Mn357      Cl358   2.580       .  S
C359       C4220   1.505       .  S
C360       C4206   1.514       .  S
N361        N362   1.317       .  A
N361        N367   1.308       .  A
N361       Mn390   2.171       .  S
N362        C369   1.352       .  A
N363        N365   1.308       .  A
N363        N364   1.314       .  A
N363       Mn379   2.159       .  S
N364        C370   1.348       .  A
N365        N366   1.319       .  A
N365       Mn390   2.187       .  S
N366        C370   1.356       .  A
N367        N368   1.316       .  A
N367       Mn379   2.176       .  S
N368        C369   1.353       .  A
C369       C4251   1.470       .  S
C370       C4195   1.474       .  S
N371        N377   1.309       .  A
N371        N372   1.321       .  A
N371       Mn401   2.173       .  S
N372        C380   1.353       .  A
N373        N374   1.311       .  A
N373        N375   1.308       .  A
N373       Mn379   2.154       .  S
N374        C381   1.349       .  A
N375        N376   1.320       .  A
N375       Mn401   2.183       .  S
N376        C381   1.354       .  A
N377        N378   1.313       .  A
N377       Mn379   2.173       .  S
N378        C380   1.351       .  A
Mn379      Cl403   2.556       .  S
C380       C4108   1.472       .  S
C381       C4069   1.469       .  S
N382        N383   1.309       .  A
N382        N388   1.318       .  A
N382       Mn390   2.140       .  S
N383        C391   1.337       .  A
N384        N386   1.318       .  A
N384        N385   1.338       .  A
N384       Mn402   2.303       .  S
N385        C392   1.375       .  A
N386        N387   1.309       .  A
N386       Mn390   2.149       .  S
N387        C392   1.338       .  A
N388        N389   1.337       .  A
N388       Mn402   2.311       .  S
N389        C391   1.375       .  A
Mn390      Cl403   2.509       .  S
C391       C4122   1.503       .  S
C392       C4052   1.505       .  S
N393        N394   1.304       .  A
N393        N399   1.318       .  A
N393       Mn401   2.123       .  S
N394        C404   1.332       .  A
N395        N396   1.337       .  A
N395        N397   1.319       .  A
N395       Mn402   2.308       .  S
N396        C405   1.374       .  A
N397        N398   1.309       .  A
N397       Mn401   2.139       .  S
N398        C405   1.337       .  A
N399        N400   1.342       .  A
N399       Mn402   2.324       .  S
N400        C404   1.380       .  A
Mn401      Cl403   2.516       .  S
Mn402      Cl403   2.572       .  S
C404       C4080   1.505       .  S
C405       C4094   1.499       .  S
N406        N407   1.318       .  A
N406        N412   1.310       .  A
N406       Mn435   2.176       .  S
N407        C414   1.351       .  A
N408        N410   1.310       .  A
N408        N409   1.317       .  A
N408       Mn424   2.183       .  S
N409        C415   1.354       .  A
N410        N411   1.316       .  A
N410       Mn435   2.168       .  S
N411        C415   1.348       .  A
N412        N413   1.317       .  A
N412       Mn424   2.176       .  S
N413        C414   1.352       .  A
C414       C4307   1.469       .  S
C415       C4013   1.470   1_455  S
N416        N422   1.310       .  A
N416        N417   1.322       .  A
N416       Mn446   2.189       .  S
N417        C425   1.355       .  A
N418        N419   1.316       .  A
N418        N420   1.309       .  A
N418       Mn424   2.182       .  S
N419        C426   1.354       .  A
N420        N421   1.317       .  A
N420       Mn446   2.157       .  S
N421        C426   1.347       .  A
N422        N423   1.315       .  A
N422       Mn424   2.178       .  S
N423        C425   1.351       .  A
Mn424      Cl448   2.561       .  S
C425       C4038   1.473       .  S
C426       C4181   1.464       .  S
N427        N428   1.311       .  A
N427        N433   1.318       .  A
N427       Mn435   2.148       .  S
N428        C436   1.339       .  A
N429        N431   1.317       .  A
N429        N430   1.341       .  A
N429       Mn447   2.321       .  S
N430        C437   1.379       .  A
N431        N432   1.308       .  A
N431       Mn435   2.136       .  S
N432        C437   1.335       .  A
N433        N434   1.335       .  A
N433       Mn447   2.297       .  S
N434        C436   1.373       .  A
Mn435      Cl448   2.510       .  S
C436       C3996   1.499       .  S
C437       C3968   1.511       .  S
N438        N439   1.308       .  A
N438        N444   1.317       .  A
N438       Mn446   2.147       .  S
N439        C449   1.337       .  A
N440        N441   1.340       .  A
N440        N442   1.318       .  A
N440       Mn447   2.322       .  S
N441        C450   1.377       .  A
N442        N443   1.307       .  A
N442       Mn446   2.124       .  S
N443        C450   1.334       .  A
N444        N445   1.339       .  A
N444       Mn447   2.300       .  S
N445        C449   1.376       .  A
Mn446      Cl448   2.513       .  S
Mn447      Cl448   2.578       .  S
C449       C3982   1.507       .  S
C450       C4024   1.501       .  S
N451        N452   1.318       .  A
N451        N457   1.311       .  A
N451       Mn480   2.181       .  S
N452        C459   1.353       .  A
N453        N455   1.311       .  A
N453        N454   1.317       .  A
N453       Mn469   2.180       .  S
N454        C460   1.354       .  A
N455        N456   1.319       .  A
N455       Mn480   2.186       .  S
N456        C460   1.352       .  A
N457        N458   1.315       .  A
N457       Mn469   2.176       .  S
N458        C459   1.350       .  A
C459       C4167   1.472       .  S
C460       C4041   1.476       .  S
N461        N467   1.309       .  A
N461        N462   1.319       .  A
N461       Mn491   2.167       .  S
N462        C470   1.350       .  A
N463        N464   1.315       .  A
N463        N465   1.310       .  A
N463       Mn469   2.185       .  S
N464        C471   1.353       .  A
N465        N466   1.320       .  A
N465       Mn491   2.173       .  S
N466        C471   1.352       .  A
N467        N468   1.315       .  A
N467       Mn469   2.180       .  S
N468        C470   1.353       .  A
Mn469      Cl493   2.545       .  S
C470       C3943   1.466       .  S
C471       C4111   1.472       .  S
N472        N473   1.308       .  A
N472        N478   1.317       .  A
N472       Mn480   2.135       .  S
N473        C481   1.336       .  A
N474        N476   1.320       .  A
N474        N475   1.335       .  A
N474       Mn492   2.302       .  S
N475        C482   1.371       .  A
N476        N477   1.316       .  A
N476       Mn480   2.168       .  S
N477        C482   1.342       .  A
N478        N479   1.341       .  A
N478       Mn492   2.321       .  S
N479        C481   1.379       .  A
Mn480      Cl493   2.520       .  S
C481       C3954   1.512       .  S
C482       C3901   1.498       .  S
N483        N484   1.308       .  A
N483        N489   1.317       .  A
N483       Mn491   2.129       .  S
N484        C494   1.336       .  A
N485        N486   1.340       .  A
N485        N487   1.316       .  A
N485       Mn492   2.312       .  S
N486        C495   1.377       .  A
N487        N488   1.306       .  A
N487       Mn491   2.124       .  S
N488        C495   1.333       .  A
N489        N490   1.339       .  A
N489       Mn492   2.320       .  S
N490        C494   1.377       .  A
Mn491      Cl493   2.520       .  S
Mn492      Cl493   2.577       .  S
C494       C3912   1.506       .  S
C495       C3926   1.501       .  S
N496        N497   1.316       .  A
N496        N502   1.309       .  A
N496       Mn525   2.158       .  S
N497        C504   1.348       .  A
N498        N500   1.309       .  A
N498        N499   1.317       .  A
N498       Mn514   2.181       .  S
N499        C505   1.353       .  A
N500        N501   1.318       .  A
N500       Mn525   2.170       .  S
N501        C505   1.350       .  A
N502        N503   1.318       .  A
N502       Mn514   2.182       .  S
N503        C504   1.354       .  A
C504       C4066   1.465       .  S
C505       C3940   1.468       .  S
N506        N512   1.311       .  A
N506        N507   1.317       .  A
N506       Mn536   2.176       .  S
N507        C515   1.352       .  A
N508        N509   1.315       .  A
N508        N510   1.310       .  A
N508       Mn514   2.170       .  S
N509        C516   1.350       .  A
N510        N511   1.321       .  A
N510       Mn536   2.190       .  S
N511        C516   1.355       .  A
N512        N513   1.315       .  A
N512       Mn514   2.177       .  S
N513        C515   1.352       .  A
Mn514      Cl538   2.562       .  S
C515       C4010   1.468       .  S
C516       C4279   1.474       .  S
N517        N518   1.307       .  A
N517        N523   1.318       .  A
N517       Mn525   2.124       .  S
N518        C526   1.333       .  A
N519        N521   1.317       .  A
N519        N520   1.338       .  A
N519       Mn537   2.312       .  S
N520        C527   1.376       .  A
N521        N522   1.308       .  A
N521       Mn525   2.129       .  S
N522        C527   1.335       .  A
N523        N524   1.338       .  A
N523       Mn537   2.317       .  S
N524        C526   1.377       .  A
Mn525      Cl538   2.516       .  S
C526       C3884   1.496       .  S
C527       C3842   1.501       .  S
N528        N529   1.310       .  A
N528        N534   1.318       .  A
N528       Mn536   2.146       .  S
N529        C539   1.339       .  A
N530        N531   1.339       .  A
N530        N532   1.319       .  A
N530       Mn537   2.316       .  S
N531        C540   1.377       .  A
N532        N533   1.312       .  A
N532       Mn536   2.159       .  S
N533        C540   1.340       .  A
N534        N535   1.336       .  A
N534       Mn537   2.307       .  S
N535        C539   1.374       .  A
Mn536      Cl538   2.515       .  S
Mn537      Cl538   2.569       .  S
C539       C3856   1.504       .  S
C540       C3870   1.513       .  S
N541        N542   1.316       .  A
N541        N547   1.308       .  A
N541       Mn570   2.179       .  S
N542        C549   1.354       .  A
N543        N545   1.310       .  A
N543        N544   1.317       .  A
N543       Mn559   2.177       .  S
N544        C550   1.351       .  A
N545        N546   1.317       .  A
N545       Mn570   2.177       .  S
N546        C550   1.352       .  A
N547        N548   1.316       .  A
N547       Mn559   2.160       .  S
N548        C549   1.348       .  A
C549       C3814   1.465       .  S
C550       C3786   1.467       .  S
N551        N557   1.317       .  A
N551        N552   1.338       .  A
N551       Mn581   2.311       .  S
N552        C560   1.376       .  A
N553        N554   1.309       .  A
N553        N555   1.316       .  A
N553       Mn559   2.143       .  S
N554        C561   1.338       .  A
N555        N556   1.339       .  A
N555       Mn581   2.312       .  S
N556        C561   1.377       .  A
N557        N558   1.309       .  A
N557       Mn559   2.134       .  S
N558        C560   1.337       .  A
Mn559      Cl583   2.511       .  S
C560       C3800   1.503       .  S
C561       C3828   1.512       .  S
N562        N563   1.315       .  A
N562        N568   1.310       .  A
N562       Mn570   2.179       .  S
N563        C571   1.350       .  A
N564        N566   1.309       .  A
N564        N565   1.320       .  A
N564       Mn582   2.185       .  S
N565        C572   1.354       .  A
N566        N567   1.314       .  A
N566       Mn570   2.169       .  S
N567        C572   1.352       .  A
N568        N569   1.320       .  A
N568       Mn582   2.183       .  S
N569        C571   1.354       .  A
Mn570      Cl583   2.551       .  S
C571       C3772   1.476       .  S
C572       C3758   1.473       .  S
N573        N574   1.337       .  A
N573        N579   1.317       .  A
N573       Mn581   2.296       .  S
N574        C584   1.375       .  A
N575        N576   1.312       .  A
N575        N577   1.320       .  A
N575       Mn582   2.150       .  S
N576        C585   1.339       .  A
N577        N578   1.334       .  A
N577       Mn581   2.303       .  S
N578        C585   1.372       .  A
N579        N580   1.305       .  A
N579       Mn582   2.129       .  S
N580        C584   1.334       .  A
Mn581      Cl583   2.581       .  S
Mn582      Cl583   2.515       .  S
C584       C3730   1.498       .  S
C585       C3744   1.498       .  S
N586        N587   1.319       .  A
N586        N592   1.310       .  A
N586       Mn615   2.190       .  S
N587        C594   1.354       .  A
N588        N590   1.309       .  A
N588        N589   1.316       .  A
N588       Mn604   2.177       .  S
N589        C595   1.353       .  A
N590        N591   1.317       .  A
N590       Mn615   2.169       .  S
N591        C595   1.351       .  A
N592        N593   1.316       .  A
N592       Mn604   2.170       .  S
N593        C594   1.351       .  A
C594       C3702   1.472       .  S
C595       C3660   1.467       .  S
N596        N602   1.308       .  A
N596        N597   1.318       .  A
N596       Mn626   2.173       .  S
N597        C605   1.351       .  A
N598        N599   1.316       .  A
N598        N600   1.310       .  A
N598       Mn604   2.182       .  S
N599        C606   1.354       .  A
N600        N601   1.317       .  A
N600       Mn626   2.166       .  S
N601        C606   1.349       .  A
N602        N603   1.314       .  A
N602       Mn604   2.164       .  S
N603        C605   1.351       .  A
Mn604      Cl628   2.563       .  S
C605       C3646   1.467       .  S
C606       C3789   1.467       .  S
N607        N608   1.313       .  A
N607        N613   1.318       .  A
N607       Mn615   2.156       .  S
N608        C616   1.340       .  A
N609        N611   1.319       .  A
N609        N610   1.337       .  A
N609       Mn627   2.314       .  S
N610        C617   1.376       .  A
N611        N612   1.309       .  A
N611       Mn615   2.139       .  S
N612        C617   1.337       .  A
N613        N614   1.335       .  A
N613       Mn627   2.295       .  S
N614        C616   1.372       .  A
Mn615      Cl628   2.508       .  S
C616       C3674   1.499       .  S
C617       C3688   1.505       .  S
N618        N619   1.309       .  A
N618        N624   1.318       .  A
N618       Mn626   2.142       .  S
N619        C629   1.337       .  A
N620        N621   1.340       .  A
N620        N622   1.317       .  A
N620       Mn627   2.315       .  S
N621        C630   1.377       .  A
N622        N623   1.308       .  A
N622       Mn626   2.134       .  S
N623        C630   1.335       .  A
N624        N625   1.340       .  A
N624       Mn627   2.318       .  S
N625        C629   1.377       .  A
Mn626      Cl628   2.509       .  S
Mn627      Cl628   2.579       .  S
C629       C3716   1.510       .  S
C630       C3632   1.505       .  S
N631        N632   1.317       .  A
N631        N637   1.309       .  A
N631       Mn660   2.158       .  S
N632        C639   1.348       .  A
N633        N635   1.310       .  A
N633        N634   1.315       .  A
N633       Mn649   2.174       .  S
N634        C640   1.350       .  A
N635        N636   1.319       .  A
N635       Mn660   2.181       .  S
N636        C640   1.353       .  A
N637        N638   1.315       .  A
N637       Mn649   2.179       .  S
N638        C639   1.352       .  A
C639       C3817   1.465       .  S
C640       C3649   1.467       .  S
N641        N647   1.309       .  A
N641        N642   1.318       .  A
N641       Mn671   2.177       .  S
N642        C650   1.351       .  A
N643        N644   1.318       .  A
N643        N645   1.311       .  A
N643       Mn649   2.185       .  S
N644        C651   1.355       .  A
N645        N646   1.314       .  A
N645       Mn671   2.163       .  S
N646        C651   1.348       .  A
N647        N648   1.316       .  A
N647       Mn649   2.173       .  S
N648        C650   1.353       .  A
Mn649      Cl673   2.561       .  S
C650       C3548   1.474       .  S
C651       C3604   1.465       .  S
N652        N653   1.307       .  A
N652        N658   1.317       .  A
N652       Mn660   2.120       .  S
N653        C661   1.333       .  A
N654        N656   1.319       .  A
N654        N655   1.339       .  A
N654       Mn672   2.315       .  S
N655        C662   1.375       .  A
N656        N657   1.309       .  A
N656       Mn660   2.144       .  S
N657        C662   1.336       .  A
N658        N659   1.335       .  A
N658       Mn672   2.296       .  S
N659        C661   1.372       .  A
Mn660      Cl673   2.515       .  S
C661       C3576   1.483       .  S
C662       C3618   1.498       .  S
N663        N664   1.313       .  A
N663        N669   1.317       .  A
N663       Mn671   2.149       .  S
N664        C674   1.339       .  A
N665        N666   1.338       .  A
N665        N667   1.317       .  A
N665       Mn672   2.307       .  S
N666        C675   1.375       .  A
N667        N668   1.308       .  A
N667       Mn671   2.136       .  S
N668        C675   1.337       .  A
N669        N670   1.339       .  A
N669       Mn672   2.317       .  S
N670        C674   1.377       .  A
Mn671      Cl673   2.510       .  S
Mn672      Cl673   2.572       .  S
C674       C3593   1.513       .  S
C675       C3562   1.502       .  S
N676        N677   1.319       .  A
N676        N682   1.309       .  A
N676       Mn705   2.169       .  S
N677        C684   1.351       .  A
N678        N680   1.310       .  A
N678        N679   1.313       .  A
N678       Mn694   2.168       .  S
N679        C685   1.350       .  A
N680        N681   1.320       .  A
N680       Mn705   2.185       .  S
N681        C685   1.355       .  A
N682        N683   1.314       .  A
N682       Mn694   2.174       .  S
N683        C684   1.352       .  A
C684       C3775   1.469   1_455  S
C685       C3506   1.469       .  S
N686        N692   1.308       .  A
N686        N687   1.319       .  A
N686       Mn716   2.175       .  S
N687        C695   1.352       .  A
N688        N689   1.316       .  A
N688        N690   1.310       .  A
N688       Mn694   2.175       .  S
N689        C696   1.352       .  A
N690        N691   1.318       .  A
N690       Mn716   2.175       .  S
N691        C696   1.352       .  A
N692        N693   1.316       .  A
N692       Mn694   2.176       .  S
N693        C695   1.353       .  A
Mn694      Cl718   2.555       .  S
C695       C3537   1.472       .  S
C696       C3705   1.470   1_455  S
N697        N698   1.309       .  A
N697        N703   1.318       .  A
N697       Mn705   2.131       .  S
N698        C706   1.334       .  A
N699        N701   1.319       .  A
N699        N700   1.338       .  A
N699       Mn717   2.315       .  S
N700        C707   1.376       .  A
N701        N702   1.311       .  A
N701       Mn705   2.152       .  S
N702        C707   1.339       .  A
N703        N704   1.339       .  A
N703       Mn717   2.317       .  S
N704        C706   1.376       .  A
Mn705      Cl718   2.517       .  S
C706       C3492   1.498       .  S
C707       C3467   1.507       .  S
N708        N709   1.309       .  A
N708        N714   1.318       .  A
N708       Mn716   2.142       .  S
N709        C719   1.336       .  A
N710        N711   1.339       .  A
N710        N712   1.318       .  A
N710       Mn717   2.312       .  S
N711        C720   1.377       .  A
N712        N713   1.306       .  A
N712       Mn716   2.134       .  S
N713        C720   1.334       .  A
N714        N715   1.341       .  A
N714       Mn717   2.322       .  S
N715        C719   1.378       .  A
Mn716      Cl718   2.513       .  S
Mn717      Cl718   2.577       .  S
C719       C3478   1.514       .  S
C720       C3520   1.503       .  S
N721        N722   1.318       .  A
N721        N727   1.308       .  A
N721       Mn750   2.159       .  S
N722        C729   1.350       .  A
N723        N725   1.309       .  A
N723        N724   1.316       .  A
N723       Mn739   2.174       .  S
N724        C730   1.351       .  A
N725        N726   1.320       .  A
N725       Mn750   2.188       .  S
N726        C730   1.355       .  A
N727        N728   1.314       .  A
N727       Mn739   2.173       .  S
N728        C729   1.352       .  A
C729       C3607   1.464   1_545  S
C730       C3450   1.476       .  S
N731        N737   1.309       .  A
N731        N732   1.319       .  A
N731       Mn761   2.177       .  S
N732        C740   1.351       .  A
N733        N734   1.314       .  A
N733        N735   1.311       .  A
N733       Mn739   2.169       .  S
N734        C741   1.349       .  A
N735        N736   1.321       .  A
N735       Mn761   2.187       .  S
N736        C741   1.354       .  A
N737        N738   1.314       .  A
N737       Mn739   2.167       .  S
N738        C740   1.351       .  A
Mn739      Cl763   2.560       .  S
C740       C3509   1.470       .  S
C741       C3761   1.471       .  S
N742        N743   1.304       .  A
N742        N748   1.317       .  A
N742       Mn750   2.118       .  S
N743        C751   1.332       .  A
N744        N746   1.319       .  A
N744        N745   1.337       .  A
N744       Mn762   2.305       .  S
N745        C752   1.374       .  A
N746        N747   1.311       .  A
N746       Mn750   2.155       .  S
N747        C752   1.338       .  A
N748        N749   1.340       .  A
N748       Mn762   2.311       .  S
N749        C751   1.377       .  A
Mn750      Cl763   2.513       .  S
C751       C3436   1.500       .  S
C752       C3408   1.501       .  S
N753        N754   1.312       .  A
N753        N759   1.319       .  A
N753       Mn761   2.146       .  S
N754        C764   1.337       .  A
N755        N756   1.340       .  A
N755        N757   1.319       .  A
N755       Mn762   2.323       .  S
N756        C765   1.378       .  A
N757        N758   1.310       .  A
N757       Mn761   2.152       .  S
N758        C765   1.338       .  A
N759        N760   1.337       .  A
N759       Mn762   2.312       .  S
N760        C764   1.373       .  A
Mn761      Cl763   2.521       .  S
Mn762      Cl763   2.571       .  S
C764       C3394   1.494       .  S
C765       C3422   1.513       .  S
N766        N767   1.318       .  A
N766        N772   1.310       .  A
N766       Mn795   2.170       .  S
N767        C774   1.351       .  A
N768        N770   1.310       .  A
N768        N769   1.315       .  A
N768       Mn784   2.174       .  S
N769        C775   1.351       .  A
N770        N771   1.319       .  A
N770       Mn795   2.176       .  S
N771        C775   1.351       .  A
N772        N773   1.315       .  A
N772       Mn784   2.177       .  S
N773        C774   1.351       .  A
C774       C3663   1.466       .  S
C775       C3534   1.467       .  S
N776        N782   1.309       .  A
N776        N777   1.319       .  A
N776       Mn806   2.173       .  S
N777        C785   1.351       .  A
N778        N779   1.316       .  A
N778        N780   1.309       .  A
N778       Mn784   2.175       .  S
N779        C786   1.352       .  A
N780        N781   1.318       .  A
N780       Mn806   2.172       .  S
N781        C786   1.352       .  A
N782        N783   1.317       .  A
N782       Mn784   2.184       .  S
N783        C785   1.354       .  A
Mn784      Cl808   2.556       .  S
C785       C3453   1.473       .  S
C786       C3551   1.469       .  S
N787        N788   1.308       .  A
N787        N793   1.318       .  A
N787       Mn795   2.134       .  S
N788        C796   1.335       .  A
N789        N791   1.318       .  A
N789        N790   1.340       .  A
N789       Mn807   2.320       .  S
N790        C797   1.377       .  A
N791        N792   1.311       .  A
N791       Mn795   2.144       .  S
N792        C797   1.338       .  A
N793        N794   1.339       .  A
N793       Mn807   2.312       .  S
N794        C796   1.377       .  A
Mn795      Cl808   2.516       .  S
C796       C3366   1.502       .  S
C797       C3338   1.509       .  S
N798        N799   1.308       .  A
N798        N804   1.318       .  A
N798       Mn806   2.134       .  S
N799        C809   1.335       .  A
N800        N801   1.338       .  A
N800        N802   1.317       .  A
N800       Mn807   2.312       .  S
N801        C810   1.376       .  A
N802        N803   1.309       .  A
N802       Mn806   2.136       .  S
N803        C810   1.336       .  A
N804        N805   1.336       .  A
N804       Mn807   2.302       .  S
N805        C809   1.374       .  A
Mn806      Cl808   2.512       .  S
Mn807      Cl808   2.572       .  S
C809       C3352   1.496       .  S
C810       C3380   1.505       .  S
N811        N812   1.317       .  A
N811        N817   1.309       .  A
N811       Mn840   2.174       .  S
N812        C819   1.353       .  A
N813        N815   1.309       .  A
N813        N814   1.319       .  A
N813       Mn829   2.172       .  S
N814        C820   1.352       .  A
N815        N816   1.314       .  A
N815       Mn840   2.172       .  S
N816        C820   1.351       .  A
N817        N818   1.316       .  A
N817       Mn829   2.175       .  S
N818        C819   1.351       .  A
C819       C3324   1.469       .  S
C820       C3299   1.471       .  S
N821        N827   1.319       .  A
N821        N822   1.339       .  A
N821       Mn851   2.316       .  S
N822        C830   1.376       .  A
N823        N824   1.307       .  A
N823        N825   1.317       .  A
N823       Mn829   2.133       .  S
N824        C831   1.334       .  A
N825        N826   1.341       .  A
N825       Mn851   2.316       .  S
N826        C831   1.378       .  A
N827        N828   1.310       .  A
N827       Mn829   2.147       .  S
N828        C830   1.337       .  A
Mn829      Cl853   2.505       .  S
C830       C3268   1.506       .  S
C831       C3495   1.509       .  S
N832        N833   1.315       .  A
N832        N838   1.310       .  A
N832       Mn840   2.179       .  S
N833        C841   1.352       .  A
N834        N836   1.309       .  A
N834        N835   1.318       .  A
N834       Mn852   2.170       .  S
N835        C842   1.350       .  A
N836        N837   1.316       .  A
N836       Mn840   2.170       .  S
N837        C842   1.350       .  A
N838        N839   1.319       .  A
N838       Mn852   2.172       .  S
N839        C841   1.351       .  A
Mn840      Cl853   2.562       .  S
C841       C3282   1.467       .  S
C842       C3313   1.463       .  S
N843        N844   1.340       .  A
N843        N849   1.318       .  A
N843       Mn851   2.331       .  S
N844        C854   1.379       .  A
N845        N846   1.308       .  A
N845        N847   1.318       .  A
N845       Mn852   2.135       .  S
N846        C855   1.335       .  A
N847        N848   1.341       .  A
N847       Mn851   2.323       .  S
N848        C855   1.378       .  A
N849        N850   1.311       .  A
N849       Mn852   2.139       .  S
N850        C854   1.337       .  A
Mn851      Cl853   2.580       .  S
Mn852      Cl853   2.514       .  S
C854       C3425   1.513       .  S
C855       C3257   1.506       .  S
N856        N857   1.314       .  A
N856        N862   1.309       .  A
N856       Mn885   2.173       .  S
N857        C864   1.351       .  A
N858        N860   1.308       .  A
N858        N859   1.319       .  A
N858       Mn874   2.175       .  S
N859        C865   1.352       .  A
N860        N861   1.315       .  A
N860       Mn885   2.174       .  S
N861        C865   1.353       .  A
N862        N863   1.319       .  A
N862       Mn874   2.174       .  S
N863        C864   1.352       .  A
C864       C3243   1.468       .  S
C865       C3226   1.474       .  S
N866        N872   1.317       .  A
N866        N867   1.340       .  A
N866       Mn896   2.315       .  S
N867        C875   1.378       .  A
N868        N869   1.309       .  A
N868        N870   1.317       .  A
N868       Mn874   2.140       .  S
N869        C876   1.337       .  A
N870        N871   1.342       .  A
N870       Mn896   2.330       .  S
N871        C876   1.380       .  A
N872        N873   1.307       .  A
N872       Mn874   2.132       .  S
N873        C875   1.335       .  A
Mn874      Cl898   2.520       .  S
C875       C3187   1.506       .  S
C876       C3590   1.517       .  S
N877        N878   1.316       .  A
N877        N883   1.310       .  A
N877       Mn885   2.171       .  S
N878        C886   1.351       .  A
N879        N881   1.310       .  A
N879        N880   1.320       .  A
N879       Mn897   2.187       .  S
N880        C887   1.355       .  A
N881        N882   1.314       .  A
N881       Mn885   2.170       .  S
N882        C887   1.350       .  A
N883        N884   1.318       .  A
N883       Mn897   2.180       .  S
N884        C886   1.352       .  A
Mn885      Cl898   2.553       .  S
C886       C3198   1.469       .  S
C887       C3212   1.477       .  S
N888        N889   1.335       .  A
N888        N894   1.320       .  A
N888       Mn896   2.301       .  S
N889        C899   1.371       .  A
N890        N891   1.311       .  A
N890        N892   1.318       .  A
N890       Mn897   2.143       .  S
N891        C900   1.337       .  A
N892        N893   1.340       .  A
N892       Mn896   2.327       .  S
N893        C900   1.379       .  A
N894        N895   1.313       .  A
N894       Mn897   2.155       .  S
N895        C899   1.339       .  A
Mn896      Cl898   2.568       .  S
Mn897      Cl898   2.521       .  S
C899       C3411   1.491       .  S
C900       C3173   1.514       .  S
N901        N902   1.340       .  A
N901        N907   1.319       .  A
N901       Mn930   2.323       .  S
N902        C909   1.377       .  A
N903        N905   1.317       .  A
N903        N904   1.306       .  A
N903       Mn919   2.139       .  S
N904        C910   1.336       .  A
N905        N906   1.339       .  A
N905       Mn930   2.303       .  S
N906        C910   1.376       .  A
N907        N908   1.310       .  A
N907       Mn919   2.146       .  S
N908        C909   1.338       .  A
C909       C4657   1.510       .  S
C910       C3747   1.505       .  S
N911        N917   1.309       .  A
N911        N912   1.314       .  A
N911       Mn941   2.168       .  S
N912        C920   1.350       .  A
N913        N914   1.319       .  A
N913        N915   1.310       .  A
N913       Mn919   2.185       .  S
N914        C921   1.354       .  A
N915        N916   1.314       .  A
N915       Mn941   2.167       .  S
N916        C921   1.349       .  A
N917        N918   1.320       .  A
N917       Mn919   2.184       .  S
N918        C920   1.354       .  A
Mn919      Cl943   2.511       .  S
C920       C3156   1.470       .  S
C921       C3128   1.468       .  S
N922        N923   1.340       .  A
N922        N928   1.317       .  A
N922       Mn930   2.321       .  S
N923        C931   1.377       .  A
N924        N926   1.317       .  A
N924        N925   1.306       .  A
N924       Mn942   2.122       .  S
N925        C932   1.334       .  A
N926        N927   1.338       .  A
N926       Mn930   2.312       .  S
N927        C932   1.376       .  A
N928        N929   1.309       .  A
N928       Mn942   2.132       .  S
N929        C931   1.334       .  A
Mn930      Cl943   2.585       .  S
C931       C3464   1.501       .  S
C932       C4419   1.501       .  S
N933        N934   1.314       .  A
N933        N939   1.309       .  A
N933       Mn941   2.173       .  S
N934        C944   1.351       .  A
N935        N936   1.315       .  A
N935        N937   1.308       .  A
N935       Mn942   2.160       .  S
N936        C945   1.349       .  A
N937        N938   1.315       .  A
N937       Mn941   2.169       .  S
N938        C945   1.352       .  A
N939        N940   1.319       .  A
N939       Mn942   2.174       .  S
N940        C944   1.352       .  A
Mn941      Cl943   2.546       .  S
Mn942      Cl943   2.511       .  S
C944       C3142   1.467       .  S
C945       C3114   1.457       .  S
N946        N947   1.338       .  A
N946        N952   1.318       .  A
N946       Mn975   2.304       .  S
N947        C954   1.374       .  A
N948        N950   1.320       .  A
N948        N949   1.310       .  A
N948       Mn964   2.150       .  S
N949        C955   1.336       .  A
N950        N951   1.336       .  A
N950       Mn975   2.307       .  S
N951        C955   1.373       .  A
N952        N953   1.308       .  A
N952       Mn964   2.135       .  S
N953        C954   1.335       .  A
C954       C3691   1.496       .  S
C955       C3047   1.492       .  S
N956        N962   1.308       .  A
N956        N957   1.314       .  A
N956       Mn986   2.169       .  S
N957        C965   1.351       .  A
N958        N959   1.319       .  A
N958        N960   1.310       .  A
N958       Mn964   2.185       .  S
N959        C966   1.355       .  A
N960        N961   1.314       .  A
N960       Mn986   2.165       .  S
N961        C966   1.350       .  A
N962        N963   1.320       .  A
N962       Mn964   2.174       .  S
N963        C965   1.352       .  A
Mn964      Cl988   2.511       .  S
C965       C3086   1.469       .  S
C966       C3103   1.467       .  S
N967        N968   1.337       .  A
N967        N973   1.317       .  A
N967       Mn975   2.302       .  S
N968        C976   1.373       .  A
N969        N971   1.319       .  A
N969        N970   1.313       .  A
N969       Mn987   2.161       .  S
N970        C977   1.339       .  A
N971        N972   1.338       .  A
N971       Mn975   2.311       .  S
N972        C977   1.375       .  A
N973        N974   1.308       .  A
N973       Mn987   2.126       .  S
N974        C976   1.334       .  A
Mn975      Cl988   2.573       .  S
C976       C3061   1.488       .  S
C977       C3481   1.506       .  S
N978        N979   1.316       .  A
N978        N984   1.308       .  A
N978       Mn986   2.168       .  S
N979        C989   1.352       .  A
N980        N981   1.318       .  A
N980        N982   1.309       .  A
N980       Mn987   2.179       .  S
N981        C990   1.352       .  A
N982        N983   1.316       .  A
N982       Mn986   2.172       .  S
N983        C990   1.352       .  A
N984        N985   1.315       .  A
N984       Mn987   2.158       .  S
N985        C989   1.348       .  A
Mn986      Cl988   2.563       .  S
Mn987      Cl988   2.508       .  S
C989       C3117   1.459       .  S
C990       C3075   1.471       .  S
N991        N992   1.315       .  A
N991        N997   1.309       .  A
N991      Mn1020   2.172       .  S
N992        C999   1.351       .  A
N993        N995   1.309       .  A
N993        N994   1.317       .  A
N993      Mn1009   2.163       .  S
N994       C1000   1.348       .  A
N995        N996   1.316       .  A
N995      Mn1020   2.175       .  S
N996       C1000   1.353       .  A
N997        N998   1.317       .  A
N997      Mn1009   2.169       .  S
N998        C999   1.351       .  A
C999       C3019   1.465       .  S
C1000      C3030   1.462       .  S
N1001      N1007   1.319       .  A
N1001      N1002   1.335       .  A
N1001     Mn1031   2.302       .  S
N1002      C1010   1.373       .  A
N1003      N1004   1.307       .  A
N1003      N1005   1.318       .  A
N1003     Mn1009   2.126       .  S
N1004      C1011   1.334       .  A
N1005      N1006   1.339       .  A
N1005     Mn1031   2.318       .  S
N1006      C1011   1.377       .  A
N1007      N1008   1.309       .  A
N1007     Mn1009   2.133       .  S
N1008      C1010   1.336       .  A
Mn1009    Cl1033   2.511       .  S
C1010      C3733   1.493       .  S
C1011      C4150   1.500       .  S
N1012      N1013   1.317       .  A
N1012      N1018   1.309       .  A
N1012     Mn1020   2.174       .  S
N1013      C1021   1.353       .  A
N1014      N1016   1.309       .  A
N1014      N1015   1.320       .  A
N1014     Mn1032   2.176       .  S
N1015      C1022   1.354       .  A
N1016      N1017   1.313       .  A
N1016     Mn1020   2.166       .  S
N1017      C1022   1.349       .  A
N1018      N1019   1.318       .  A
N1018     Mn1032   2.181       .  S
N1019      C1021   1.352       .  A
Mn1020    Cl1033   2.563       .  S
C1021      C3215   1.473       .  S
C1022      C3002   1.469       .  S
N1023      N1024   1.340       .  A
N1023      N1029   1.318       .  A
N1023     Mn1031   2.314       .  S
N1024      C1034   1.377       .  A
N1025      N1026   1.309       .  A
N1025      N1027   1.317       .  A
N1025     Mn1032   2.135       .  S
N1026      C1035   1.335       .  A
N1027      N1028   1.340       .  A
N1027     Mn1031   2.322       .  S
N1028      C1035   1.377       .  A
N1029      N1030   1.309       .  A
N1029     Mn1032   2.151       .  S
N1030      C1034   1.338       .  A
Mn1031    Cl1033   2.571       .  S
Mn1032    Cl1033   2.510       .  S
C1034      C3898   1.510       .  S
C1035      C3397   1.504       .  S
N1036      N1037   1.339       .  A
N1036      N1042   1.318       .  A
N1036     Mn1065   2.317       .  S
N1037      C1044   1.375       .  A
N1038      N1040   1.317       .  A
N1038      N1039   1.309       .  A
N1038     Mn1054   2.141       .  S
N1039      C1045   1.338       .  A
N1040      N1041   1.339       .  A
N1040     Mn1065   2.312       .  S
N1041      C1045   1.376       .  A
N1042      N1043   1.311       .  A
N1042     Mn1054   2.144       .  S
N1043      C1044   1.337       .  A
C1044      C4237   1.500       .  S
C1045      C3677   1.508       .  S
N1046      N1052   1.311       .  A
N1046      N1047   1.313       .  A
N1046     Mn1076   2.172       .  S
N1047      C1055   1.350       .  A
N1048      N1049   1.318       .  A
N1048      N1050   1.311       .  A
N1048     Mn1054   2.173       .  S
N1049      C1056   1.350       .  A
N1050      N1051   1.317       .  A
N1050     Mn1076   2.188       .  S
N1051      C1056   1.353       .  A
N1052      N1053   1.320       .  A
N1052     Mn1054   2.176       .  S
N1053      C1055   1.352       .  A
Mn1054    Cl1078   2.525       .  S
C1055      C2988   1.467       .  S
C1056      C2960   1.468       .  S
N1057      N1058   1.340       .  A
N1057      N1063   1.319       .  A
N1057     Mn1065   2.323       .  S
N1058      C1066   1.378       .  A
N1059      N1061   1.317       .  A
N1059      N1060   1.308       .  A
N1059     Mn1077   2.141       .  S
N1060      C1067   1.337       .  A
N1061      N1062   1.336       .  A
N1061     Mn1065   2.293       .  S
N1062      C1067   1.373       .  A
N1063      N1064   1.311       .  A
N1063     Mn1077   2.150       .  S
N1064      C1066   1.338       .  A
Mn1065    Cl1078   2.571       .  S
C1066      C3341   1.512       .  S
C1067      C3859   1.499       .  S
N1068      N1069   1.316       .  A
N1068      N1074   1.310       .  A
N1068     Mn1076   2.176       .  S
N1069      C1079   1.352       .  A
N1070      N1071   1.318       .  A
N1070      N1072   1.310       .  A
N1070     Mn1077   2.174       .  S
N1071      C1080   1.351       .  A
N1072      N1073   1.317       .  A
N1072     Mn1076   2.189       .  S
N1073      C1080   1.355       .  A
N1074      N1075   1.320       .  A
N1074     Mn1077   2.186       .  S
N1075      C1079   1.353       .  A
Mn1076    Cl1078   2.554       .  S
Mn1077    Cl1078   2.518       .  S
C1079      C2974   1.473       .  S
C1080      C2946   1.479       .  S
N1081      N1082   1.317       .  A
N1081      N1087   1.309       .  A
N1081     Mn1110   2.179       .  S
N1082      C1089   1.354       .  A
N1083      N1085   1.310       .  A
N1083      N1084   1.321       .  A
N1083     Mn1099   2.191       .  S
N1084      C1090   1.355       .  A
N1085      N1086   1.317       .  A
N1085     Mn1110   2.182       .  S
N1086      C1090   1.353       .  A
N1087      N1088   1.316       .  A
N1087     Mn1099   2.167       .  S
N1088      C1089   1.350       .  A
C1089      C2907   1.468       .  S
C1090      C2935   1.480       .  S
N1091      N1097   1.318       .  A
N1091      N1092   1.337       .  A
N1091     Mn1121   2.312       .  S
N1092      C1100   1.375       .  A
N1093      N1094   1.313       .  A
N1093      N1095   1.318       .  A
N1093     Mn1099   2.160       .  S
N1094      C1101   1.340       .  A
N1095      N1096   1.336       .  A
N1095     Mn1121   2.299       .  S
N1096      C1101   1.373       .  A
N1097      N1098   1.309       .  A
N1097     Mn1099   2.137       .  S
N1098      C1100   1.337       .  A
Mn1099    Cl1123   2.514       .  S
C1100      C4136   1.505       .  S
C1101      C4643   1.503       .  S
N1102      N1103   1.315       .  A
N1102      N1108   1.310       .  A
N1102     Mn1110   2.176       .  S
N1103      C1111   1.351       .  A
N1104      N1106   1.309       .  A
N1104      N1105   1.317       .  A
N1104     Mn1122   2.164       .  S
N1105      C1112   1.350       .  A
N1106      N1107   1.315       .  A
N1106     Mn1110   2.174       .  S
N1107      C1112   1.353       .  A
N1108      N1109   1.317       .  A
N1108     Mn1122   2.168       .  S
N1109      C1111   1.350       .  A
Mn1110    Cl1123   2.565       .  S
C1111      C2918   1.462       .  S
C1112      C2890   1.465       .  S
N1113      N1114   1.336       .  A
N1113      N1119   1.318       .  A
N1113     Mn1121   2.305       .  S
N1114      C1124   1.373       .  A
N1115      N1116   1.310       .  A
N1115      N1117   1.318       .  A
N1115     Mn1122   2.135       .  S
N1116      C1125   1.337       .  A
N1117      N1118   1.337       .  A
N1117     Mn1121   2.315       .  S
N1118      C1125   1.376       .  A
N1119      N1120   1.310       .  A
N1119     Mn1122   2.139       .  S
N1120      C1124   1.337       .  A
Mn1121    Cl1123   2.567       .  S
Mn1122    Cl1123   2.516       .  S
C1124      C4475   1.496       .  S
C1125      C3985   1.503       .  S
N1126      N1127   1.338       .  A
N1126      N1132   1.317       .  A
N1126     Mn1155   2.303       .  S
N1127      C1134   1.376       .  A
N1128      N1130   1.318       .  A
N1128      N1129   1.308       .  A
N1128     Mn1144   2.135       .  S
N1129      C1135   1.336       .  A
N1130      N1131   1.338       .  A
N1130     Mn1155   2.311       .  S
N1131      C1135   1.375       .  A
N1132      N1133   1.308       .  A
N1132     Mn1144   2.138       .  S
N1133      C1134   1.336       .  A
C1134      C4097   1.504       .  S
C1135      C2862   1.498       .  S
N1136      N1142   1.310       .  A
N1136      N1137   1.315       .  A
N1136     Mn1166   2.174       .  S
N1137      C1145   1.351       .  A
N1138      N1139   1.317       .  A
N1138      N1140   1.310       .  A
N1138     Mn1144   2.171       .  S
N1139      C1146   1.350       .  A
N1140      N1141   1.317       .  A
N1140     Mn1166   2.180       .  S
N1141      C1146   1.353       .  A
N1142      N1143   1.321       .  A
N1142     Mn1144   2.185       .  S
N1143      C1145   1.355       .  A
Mn1144    Cl1168   2.509       .  S
C1145      C2848   1.474       .  S
C1146      C2879   1.467       .  S
N1147      N1148   1.336       .  A
N1147      N1153   1.318       .  A
N1147     Mn1155   2.305       .  S
N1148      C1156   1.374       .  A
N1149      N1151   1.317       .  A
N1149      N1150   1.309       .  A
N1149     Mn1167   2.135       .  S
N1150      C1157   1.336       .  A
N1151      N1152   1.338       .  A
N1151     Mn1155   2.314       .  S
N1152      C1157   1.377       .  A
N1153      N1154   1.311       .  A
N1153     Mn1167   2.146       .  S
N1154      C1156   1.339       .  A
Mn1155    Cl1168   2.586       .  S
C1156      C2837   1.502       .  S
C1157      C3915   1.507       .  S
N1158      N1159   1.316       .  A
N1158      N1164   1.309       .  A
N1158     Mn1166   2.175       .  S
N1159      C1169   1.353       .  A
N1160      N1161   1.318       .  A
N1160      N1162   1.310       .  A
N1160     Mn1167   2.176       .  S
N1161      C1170   1.352       .  A
N1162      N1163   1.315       .  A
N1162     Mn1166   2.175       .  S
N1163      C1170   1.352       .  A
N1164      N1165   1.318       .  A
N1164     Mn1167   2.172       .  S
N1165      C1169   1.350       .  A
Mn1166    Cl1168   2.554       .  S
Mn1167    Cl1168   2.512       .  S
C1169      C3005   1.472       .  S
C1170      C3201   1.470       .  S
N1171      N1172   1.316       .  A
N1171      N1177   1.310       .  A
N1171     Mn1200   2.180       .  S
N1172      C1179   1.352       .  A
N1173      N1175   1.309       .  A
N1173      N1174   1.317       .  A
N1173     Mn1189   2.164       .  S
N1174      C1180   1.349       .  A
N1175      N1176   1.315       .  A
N1175     Mn1200   2.176       .  S
N1176      C1180   1.353       .  A
N1177      N1178   1.321       .  A
N1177     Mn1189   2.189       .  S
N1178      C1179   1.354       .  A
C1179      C2823   1.475       .  S
C1180      C3285   1.465       .  S
N1181      N1187   1.318       .  A
N1181      N1182   1.335       .  A
N1181     Mn1211   2.290       .  S
N1182      C1190   1.371       .  A
N1183      N1184   1.308       .  A
N1183      N1185   1.318       .  A
N1183     Mn1189   2.130       .  S
N1184      C1191   1.336       .  A
N1185      N1186   1.337       .  A
N1185     Mn1211   2.313       .  S
N1186      C1191   1.375       .  A
N1187      N1188   1.310       .  A
N1187     Mn1189   2.145       .  S
N1188      C1190   1.337       .  A
Mn1189    Cl1213   2.511       .  S
C1190      C2809   1.490       .  S
C1191      C4293   1.499       .  S
N1192      N1193   1.318       .  A
N1192      N1198   1.309       .  A
N1192     Mn1200   2.179       .  S
N1193      C1201   1.354       .  A
N1194      N1196   1.310       .  A
N1194      N1195   1.313       .  A
N1194     Mn1212   2.154       .  S
N1195      C1202   1.346       .  A
N1196      N1197   1.317       .  A
N1196     Mn1200   2.179       .  S
N1197      C1202   1.354       .  A
N1198      N1199   1.316       .  A
N1198     Mn1212   2.172       .  S
N1199      C1201   1.351       .  A
Mn1200    Cl1213   2.555       .  S
C1201      C2795   1.470       .  S
C1202      C2921   1.459       .  S
N1203      N1204   1.336       .  A
N1203      N1209   1.317       .  A
N1203     Mn1211   2.302       .  S
N1204      C1214   1.374       .  A
N1205      N1206   1.308       .  A
N1205      N1207   1.316       .  A
N1205     Mn1212   2.122       .  S
N1206      C1215   1.334       .  A
N1207      N1208   1.340       .  A
N1207     Mn1211   2.323       .  S
N1208      C1215   1.379       .  A
N1209      N1210   1.312       .  A
N1209     Mn1212   2.149       .  S
N1210      C1214   1.339       .  A
Mn1211    Cl1213   2.580       .  S
Mn1212    Cl1213   2.506       .  S
C1214      C3971   1.501       .  S
C1215      C2781   1.505       .  S
N1216      N1217   1.341       .  A
N1216      N1222   1.316       .  A
N1216     Mn1245   2.322       .  S
N1217      C1224   1.380       .  A
N1218      N1220   1.318       .  A
N1218      N1219   1.309       .  A
N1218     Mn1234   2.137       .  S
N1219      C1225   1.338       .  A
N1220      N1221   1.336       .  A
N1220     Mn1245   2.306       .  S
N1221      C1225   1.374       .  A
N1222      N1223   1.305       .  A
N1222     Mn1234   2.120       .  S
N1223      C1224   1.332       .  A
C1224      C4027   1.506       .  S
C1225      C2722   1.502       .  S
N1226      N1232   1.310       .  A
N1226      N1227   1.315       .  A
N1226     Mn1256   2.183       .  S
N1227      C1235   1.353       .  A
N1228      N1229   1.318       .  A
N1228      N1230   1.309       .  A
N1228     Mn1234   2.170       .  S
N1229      C1236   1.350       .  A
N1230      N1231   1.316       .  A
N1230     Mn1256   2.174       .  S
N1231      C1236   1.352       .  A
N1232      N1233   1.319       .  A
N1232     Mn1234   2.170       .  S
N1233      C1235   1.351       .  A
Mn1234    Cl1258   2.513       .  S
C1235      C2708   1.470       .  S
C1236      C2750   1.466       .  S
N1237      N1238   1.339       .  A
N1237      N1243   1.319       .  A
N1237     Mn1245   2.318       .  S
N1238      C1246   1.376       .  A
N1239      N1241   1.318       .  A
N1239      N1240   1.312       .  A
N1239     Mn1257   2.147       .  S
N1240      C1247   1.338       .  A
N1241      N1242   1.337       .  A
N1241     Mn1245   2.309       .  S
N1242      C1247   1.375       .  A
N1243      N1244   1.309       .  A
N1243     Mn1257   2.139       .  S
N1244      C1246   1.336       .  A
Mn1245    Cl1258   2.583       .  S
C1246      C2739   1.502       .  S
C1247      C3957   1.502       .  S
N1248      N1249   1.316       .  A
N1248      N1254   1.310       .  A
N1248     Mn1256   2.176       .  S
N1249      C1259   1.352       .  A
N1250      N1251   1.320       .  A
N1250      N1252   1.310       .  A
N1250     Mn1257   2.185       .  S
N1251      C1260   1.354       .  A
N1252      N1253   1.314       .  A
N1252     Mn1256   2.175       .  S
N1253      C1260   1.350       .  A
N1254      N1255   1.317       .  A
N1254     Mn1257   2.172       .  S
N1255      C1259   1.351       .  A
Mn1256    Cl1258   2.550       .  S
Mn1257    Cl1258   2.515       .  S
C1259      C2764   1.468       .  S
C1260      C3089   1.475       .  S
N1261      N1262   1.317       .  A
N1261      N1267   1.309       .  A
N1261     Mn1290   2.178       .  S
N1262      C1269   1.354       .  A
N1263      N1265   1.310       .  A
N1263      N1264   1.318       .  A
N1263     Mn1279   2.170       .  S
N1264      C1270   1.350       .  A
N1265      N1266   1.316       .  A
N1265     Mn1290   2.179       .  S
N1266      C1270   1.352       .  A
N1267      N1268   1.316       .  A
N1267     Mn1279   2.165       .  S
N1268      C1269   1.349       .  A
C1269      C2694   1.468       .  S
C1270      C2655   1.467       .  S
N1271      N1277   1.318       .  A
N1271      N1272   1.337       .  A
N1271     Mn1301   2.310       .  S
N1272      C1280   1.375       .  A
N1273      N1274   1.307       .  A
N1273      N1275   1.317       .  A
N1273     Mn1279   2.130       .  S
N1274      C1281   1.335       .  A
N1275      N1276   1.338       .  A
N1275     Mn1301   2.304       .  S
N1276      C1281   1.376       .  A
N1277      N1278   1.309       .  A
N1277     Mn1279   2.136       .  S
N1278      C1280   1.337       .  A
Mn1279    Cl1303   2.505       .  S
C1280      C2638   1.504       .  S
C1281      C2865   1.502       .  S
N1282      N1283   1.314       .  A
N1282      N1288   1.310       .  A
N1282     Mn1290   2.170       .  S
N1283      C1291   1.351       .  A
N1284      N1286   1.310       .  A
N1284      N1285   1.318       .  A
N1284     Mn1302   2.172       .  S
N1285      C1292   1.350       .  A
N1286      N1287   1.316       .  A
N1286     Mn1290   2.177       .  S
N1287      C1292   1.352       .  A
N1288      N1289   1.320       .  A
N1288     Mn1302   2.187       .  S
N1289      C1291   1.354       .  A
Mn1290    Cl1303   2.557       .  S
C1291      C2669   1.475       .  S
C1292      C2680   1.468       .  S
N1293      N1294   1.338       .  A
N1293      N1299   1.318       .  A
N1293     Mn1301   2.311       .  S
N1294      C1304   1.376       .  A
N1295      N1296   1.309       .  A
N1295      N1297   1.318       .  A
N1295     Mn1302   2.141       .  S
N1296      C1305   1.338       .  A
N1297      N1298   1.336       .  A
N1297     Mn1301   2.301       .  S
N1298      C1305   1.373       .  A
N1299      N1300   1.310       .  A
N1299     Mn1302   2.148       .  S
N1300      C1304   1.338       .  A
Mn1301    Cl1303   2.588       .  S
Mn1302    Cl1303   2.508       .  S
C1304      C2624   1.507       .  S
C1305      C2725   1.501       .  S
N1306      N1307   1.340       .  A
N1306      N1312   1.318       .  A
N1306     Mn1335   2.329       .  S
N1307      C1314   1.379       .  A
N1308      N1310   1.318       .  A
N1308      N1309   1.309       .  A
N1308     Mn1324   2.145       .  S
N1309      C1315   1.339       .  A
N1310      N1311   1.334       .  A
N1310     Mn1335   2.284       .  S
N1311      C1315   1.371       .  A
N1312      N1313   1.309       .  A
N1312     Mn1324   2.129       .  S
N1313      C1314   1.334       .  A
C1314      C3635   1.510       .  S
C1315      C2596   1.494       .  S
N1316      N1322   1.309       .  A
N1316      N1317   1.314       .  A
N1316     Mn1346   2.173       .  S
N1317      C1325   1.351       .  A
N1318      N1319   1.318       .  A
N1318      N1320   1.310       .  A
N1318     Mn1324   2.175       .  S
N1319      C1326   1.351       .  A
N1320      N1321   1.316       .  A
N1320     Mn1346   2.180       .  S
N1321      C1326   1.353       .  A
N1322      N1323   1.317       .  A
N1322     Mn1324   2.166       .  S
N1323      C1325   1.351       .  A
Mn1324    Cl1348   2.508       .  S
C1325      C2582   1.467       .  S
C1326      C2991   1.470       .  S
N1327      N1328   1.341       .  A
N1327      N1333   1.317       .  A
N1327     Mn1335   2.325       .  S
N1328      C1336   1.379       .  A
N1329      N1331   1.316       .  A
N1329      N1330   1.305       .  A
N1329     Mn1347   2.128       .  S
N1330      C1337   1.334       .  A
N1331      N1332   1.337       .  A
N1331     Mn1335   2.293       .  S
N1332      C1337   1.374       .  A
N1333      N1334   1.309       .  A
N1333     Mn1347   2.140       .  S
N1334      C1336   1.337       .  A
Mn1335    Cl1348   2.574       .  S
C1336      C2554   1.514       .  S
C1337      C3579   1.494       .  S
N1338      N1339   1.316       .  A
N1338      N1344   1.309       .  A
N1338     Mn1346   2.175       .  S
N1339      C1349   1.352       .  A
N1340      N1341   1.317       .  A
N1340      N1342   1.309       .  A
N1340     Mn1347   2.167       .  S
N1341      C1350   1.351       .  A
N1342      N1343   1.316       .  A
N1342     Mn1346   2.180       .  S
N1343      C1350   1.353       .  A
N1344      N1345   1.318       .  A
N1344     Mn1347   2.173       .  S
N1345      C1349   1.351       .  A
Mn1346    Cl1348   2.563       .  S
Mn1347    Cl1348   2.506       .  S
C1349      C2610   1.468       .  S
C1350      C2571   1.467       .  S
N1351      N1352   1.316       .  A
N1351      N1357   1.308       .  A
N1351     Mn1380   2.169       .  S
N1352      C1359   1.352       .  A
N1353      N1355   1.309       .  A
N1353      N1354   1.319       .  A
N1353     Mn1369   2.175       .  S
N1354      C1360   1.351       .  A
N1355      N1356   1.314       .  A
N1355     Mn1380   2.169       .  S
N1356      C1360   1.351       .  A
N1357      N1358   1.319       .  A
N1357     Mn1369   2.179       .  S
N1358      C1359   1.352       .  A
C1359      C2501   1.473       .  S
C1360      C2512   1.467       .  S
N1361      N1367   1.317       .  A
N1361      N1362   1.340       .  A
N1361     Mn1391   2.317       .  S
N1362      C1370   1.377       .  A
N1363      N1364   1.307       .  A
N1363      N1365   1.317       .  A
N1363     Mn1369   2.132       .  S
N1364      C1371   1.335       .  A
N1365      N1366   1.341       .  A
N1365     Mn1391   2.319       .  S
N1366      C1371   1.378       .  A
N1367      N1368   1.310       .  A
N1367     Mn1369   2.139       .  S
N1368      C1370   1.338       .  A
Mn1369    Cl1393   2.515       .  S
C1370      C2526   1.511       .  S
C1371      C3170   1.506       .  S
N1372      N1373   1.312       .  A
N1372      N1378   1.309       .  A
N1372     Mn1380   2.161       .  S
N1373      C1381   1.349       .  A
N1374      N1376   1.310       .  A
N1374      N1375   1.319       .  A
N1374     Mn1392   2.183       .  S
N1375      C1382   1.354       .  A
N1376      N1377   1.313       .  A
N1376     Mn1380   2.163       .  S
N1377      C1382   1.349       .  A
N1378      N1379   1.323       .  A
N1378     Mn1392   2.196       .  S
N1379      C1381   1.357       .  A
Mn1380    Cl1393   2.544       .  S
C1381      C2540   1.477       .  S
C1382      C2697   1.467       .  S
N1383      N1384   1.337       .  A
N1383      N1389   1.318       .  A
N1383     Mn1391   2.304       .  S
N1384      C1394   1.374       .  A
N1385      N1386   1.310       .  A
N1385      N1387   1.319       .  A
N1385     Mn1392   2.145       .  S
N1386      C1395   1.339       .  A
N1387      N1388   1.334       .  A
N1387     Mn1391   2.304       .  S
N1388      C1395   1.372       .  A
N1389      N1390   1.310       .  A
N1389     Mn1392   2.148       .  S
N1390      C1394   1.338       .  A
Mn1391    Cl1393   2.579       .  S
Mn1392    Cl1393   2.520       .  S
C1394      C2834   1.505       .  S
C1395      C2599   1.500       .  S
N1396      N1397   1.339       .  A
N1396      N1402   1.318       .  A
N1396     Mn1425   2.307       .  S
N1397      C1404   1.375       .  A
N1398      N1400   1.320       .  A
N1398      N1399   1.312       .  A
N1398     Mn1414   2.166       .  S
N1399      C1405   1.341       .  A
N1400      N1401   1.334       .  A
N1400     Mn1425   2.291       .  S
N1401      C1405   1.371       .  A
N1402      N1403   1.305       .  A
N1402     Mn1414   2.125       .  S
N1403      C1404   1.334       .  A
C1404      C4797   1.497       .  S
C1405      C2470   1.502       .  S
N1406      N1412   1.308       .  A
N1406      N1407   1.310       .  A
N1406     Mn1436   2.159       .  S
N1407      C1415   1.350       .  A
N1408      N1409   1.322       .  A
N1408      N1410   1.310       .  A
N1408     Mn1414   2.201       .  S
N1409      C1416   1.358       .  A
N1410      N1411   1.314       .  A
N1410     Mn1436   2.167       .  S
N1411      C1416   1.349       .  A
N1412      N1413   1.320       .  A
N1412     Mn1414   2.166       .  S
N1413      C1415   1.352       .  A
Mn1414    Cl1438   2.516       .  S
C1415      C3296   1.466       .  S
C1416      C2484   1.476       .  S
N1417      N1418   1.341       .  A
N1417      N1423   1.316       .  A
N1417     Mn1425   2.319       .  S
N1418      C1426   1.378       .  A
N1419      N1421   1.318       .  A
N1419      N1420   1.311       .  A
N1419     Mn1437   2.154       .  S
N1420      C1427   1.339       .  A
N1421      N1422   1.338       .  A
N1421     Mn1425   2.310       .  S
N1422      C1427   1.375       .  A
N1423      N1424   1.305       .  A
N1423     Mn1437   2.117       .  S
N1424      C1426   1.334       .  A
Mn1425    Cl1438   2.565       .  S
C1426      C2459   1.506       .  S
C1427      C4486   1.509       .  S
N1428      N1429   1.310       .  A
N1428      N1434   1.307       .  A
N1428     Mn1436   2.155       .  S
N1429      C1439   1.350       .  A
N1430      N1431   1.320       .  A
N1430      N1432   1.309       .  A
N1430     Mn1437   2.192       .  S
N1431      C1440   1.354       .  A
N1432      N1433   1.315       .  A
N1432     Mn1436   2.167       .  S
N1433      C1440   1.351       .  A
N1434      N1435   1.318       .  A
N1434     Mn1437   2.153       .  S
N1435      C1439   1.349       .  A
Mn1436    Cl1438   2.550       .  S
Mn1437    Cl1438   2.520       .  S
C1439      C2893   1.460       .  S
C1440      C2792   1.474       .  S
N1441      N1442   1.315       .  A
N1441      N1447   1.310       .  A
N1441     Mn1470   2.173       .  S
N1442      C1449   1.350       .  A
N1443      N1445   1.309       .  A
N1443      N1444   1.321       .  A
N1443     Mn1459   2.169       .  S
N1444      C1450   1.352       .  A
N1445      N1446   1.312       .  A
N1445     Mn1470   2.173       .  S
N1446      C1450   1.351       .  A
N1447      N1448   1.320       .  A
N1447     Mn1459   2.186       .  S
N1448      C1449   1.354       .  A
C1449      C2442   1.472       .  S
C1450      C2711   1.468       .  S
N1451      N1457   1.319       .  A
N1451      N1452   1.337       .  A
N1451     Mn1481   2.302       .  S
N1452      C1460   1.374       .  A
N1453      N1454   1.308       .  A
N1453      N1455   1.319       .  A
N1453     Mn1459   2.130       .  S
N1454      C1461   1.334       .  A
N1455      N1456   1.341       .  A
N1455     Mn1481   2.326       .  S
N1456      C1461   1.377       .  A
N1457      N1458   1.309       .  A
N1457     Mn1459   2.147       .  S
N1458      C1460   1.337       .  A
Mn1459    Cl1483   2.521       .  S
C1460      C2641   1.502       .  S
C1461      C4601   1.500       .  S
N1462      N1463   1.315       .  A
N1462      N1468   1.309       .  A
N1462     Mn1470   2.171       .  S
N1463      C1471   1.352       .  A
N1464      N1466   1.310       .  A
N1464      N1465   1.318       .  A
N1464     Mn1482   2.172       .  S
N1465      C1472   1.351       .  A
N1466      N1467   1.316       .  A
N1466     Mn1470   2.181       .  S
N1467      C1472   1.353       .  A
N1468      N1469   1.319       .  A
N1468     Mn1482   2.184       .  S
N1469      C1471   1.354       .  A
Mn1470    Cl1483   2.553       .  S
C1471      C3072   1.474       .  S
C1472      C3145   1.471       .  S
N1473      N1474   1.334       .  A
N1473      N1479   1.318       .  A
N1473     Mn1481   2.291       .  S
N1474      C1484   1.371       .  A
N1475      N1476   1.308       .  A
N1475      N1477   1.318       .  A
N1475     Mn1482   2.136       .  S
N1476      C1485   1.335       .  A
N1477      N1478   1.343       .  A
N1477     Mn1481   2.332       .  S
N1478      C1485   1.380       .  A
N1479      N1480   1.313       .  A
N1479     Mn1482   2.161       .  S
N1480      C1484   1.342       .  A
Mn1481    Cl1483   2.575       .  S
Mn1482    Cl1483   2.518       .  S
C1484      C4402   1.502       .  S
C1485      C2428   1.513       .  S
N1486      N1487   1.315       .  A
N1486      N1492   1.309       .  A
N1486     Mn1515   2.170       .  S
N1487      C1494   1.351       .  A
N1488      N1490   1.309       .  A
N1488      N1489   1.320       .  A
N1488     Mn1504   2.182       .  S
N1489      C1495   1.354       .  A
N1490      N1491   1.314       .  A
N1490     Mn1515   2.172       .  S
N1491      C1495   1.352       .  A
N1492      N1493   1.318       .  A
N1492     Mn1504   2.175       .  S
N1493      C1494   1.352       .  A
C1494      C2417   1.467       .  S
C1495      C2851   1.474       .  S
N1496      N1502   1.317       .  A
N1496      N1497   1.339       .  A
N1496     Mn1526   2.315       .  S
N1497      C1505   1.377       .  A
N1498      N1499   1.311       .  A
N1498      N1500   1.319       .  A
N1498     Mn1504   2.150       .  S
N1499      C1506   1.338       .  A
N1500      N1501   1.338       .  A
N1500     Mn1526   2.313       .  S
N1501      C1506   1.376       .  A
N1502      N1503   1.309       .  A
N1502     Mn1504   2.138       .  S
N1503      C1505   1.336       .  A
Mn1504    Cl1528   2.520       .  S
C1505      C2627   1.507       .  S
C1506      C4528   1.506       .  S
N1507      N1508   1.314       .  A
N1507      N1513   1.309       .  A
N1507     Mn1515   2.168       .  S
N1508      C1516   1.350       .  A
N1509      N1511   1.310       .  A
N1509      N1510   1.322       .  A
N1509     Mn1527   2.191       .  S
N1510      C1517   1.356       .  A
N1511      N1512   1.314       .  A
N1511     Mn1515   2.171       .  S
N1512      C1517   1.350       .  A
N1513      N1514   1.321       .  A
N1513     Mn1527   2.182       .  S
N1514      C1516   1.354       .  A
Mn1515    Cl1528   2.553       .  S
C1516      C3229   1.471       .  S
C1517      C2400   1.475       .  S
N1518      N1519   1.339       .  A
N1518      N1524   1.319       .  A
N1518     Mn1526   2.315       .  S
N1519      C1529   1.376       .  A
N1520      N1521   1.309       .  A
N1520      N1522   1.319       .  A
N1520     Mn1527   2.148       .  S
N1521      C1530   1.338       .  A
N1522      N1523   1.337       .  A
N1522     Mn1526   2.306       .  S
N1523      C1530   1.375       .  A
N1524      N1525   1.309       .  A
N1524     Mn1527   2.143       .  S
N1525      C1529   1.336       .  A
Mn1526    Cl1528   2.575       .  S
Mn1527    Cl1528   2.520       .  S
C1529      C4461   1.503       .  S
C1530      C2386   1.505       .  S
N1531      N1532   1.339       .  A
N1531      N1537   1.318       .  A
N1531     Mn1560   2.314       .  S
N1532      C1539   1.376       .  A
N1533      N1535   1.317       .  A
N1533      N1534   1.307       .  A
N1533     Mn1549   2.133       .  S
N1534      C1540   1.335       .  A
N1535      N1536   1.338       .  A
N1535     Mn1560   2.305       .  S
N1536      C1540   1.376       .  A
N1537      N1538   1.309       .  A
N1537     Mn1549   2.146       .  S
N1538      C1539   1.337       .  A
C1539      C3271   1.508       .  S
C1540      C2389   1.502       .  S
N1541      N1547   1.309       .  A
N1541      N1542   1.314       .  A
N1541     Mn1571   2.170       .  S
N1542      C1550   1.351       .  A
N1543      N1544   1.317       .  A
N1543      N1545   1.310       .  A
N1543     Mn1549   2.172       .  S
N1544      C1551   1.351       .  A
N1545      N1546   1.316       .  A
N1545     Mn1571   2.175       .  S
N1546      C1551   1.351       .  A
N1547      N1548   1.320       .  A
N1547     Mn1549   2.179       .  S
N1548      C1550   1.352       .  A
Mn1549    Cl1573   2.510       .  S
C1550      C2683   1.469       .  S
C1551      C2358   1.462       .  S
N1552      N1553   1.338       .  A
N1552      N1558   1.318       .  A
N1552     Mn1560   2.313       .  S
N1553      C1561   1.375       .  A
N1554      N1556   1.318       .  A
N1554      N1555   1.311       .  A
N1554     Mn1572   2.148       .  S
N1555      C1562   1.340       .  A
N1556      N1557   1.336       .  A
N1556     Mn1560   2.306       .  S
N1557      C1562   1.373       .  A
N1558      N1559   1.310       .  A
N1558     Mn1572   2.134       .  S
N1559      C1561   1.335       .  A
Mn1560    Cl1573   2.582       .  S
C1561      C3184   1.497       .  S
C1562      C2473   1.505       .  S
N1563      N1564   1.315       .  A
N1563      N1569   1.309       .  A
N1563     Mn1571   2.166       .  S
N1564      C1574   1.350       .  A
N1565      N1566   1.318       .  A
N1565      N1567   1.310       .  A
N1565     Mn1572   2.182       .  S
N1566      C1575   1.352       .  A
N1567      N1568   1.318       .  A
N1567     Mn1571   2.183       .  S
N1568      C1575   1.354       .  A
N1569      N1570   1.318       .  A
N1569     Mn1572   2.177       .  S
N1570      C1574   1.352       .  A
Mn1571    Cl1573   2.552       .  S
Mn1572    Cl1573   2.514       .  S
C1574      C2372   1.468       .  S
C1575      C2498   1.472       .  S
N1576      N1577   1.313       .  A
N1576      N1582   1.309       .  A
N1576     Mn1605   2.167       .  S
N1577      C1584   1.348       .  A
N1578      N1580   1.309       .  A
N1578      N1579   1.318       .  A
N1578     Mn1594   2.165       .  S
N1579      C1585   1.350       .  A
N1580      N1581   1.314       .  A
N1580     Mn1605   2.170       .  S
N1581      C1585   1.351       .  A
N1582      N1583   1.321       .  A
N1582     Mn1594   2.184       .  S
N1583      C1584   1.355       .  A
C1584      C2330   1.472       .  S
C1585      C2613   1.464       .  S
N1586      N1592   1.319       .  A
N1586      N1587   1.336       .  A
N1586     Mn1616   2.304       .  S
N1587      C1595   1.373       .  A
N1588      N1589   1.307       .  A
N1588      N1590   1.317       .  A
N1588     Mn1594   2.128       .  S
N1589      C1596   1.335       .  A
N1590      N1591   1.338       .  A
N1590     Mn1616   2.309       .  S
N1591      C1596   1.376       .  A
N1592      N1593   1.311       .  A
N1592     Mn1594   2.148       .  S
N1593      C1595   1.338       .  A
Mn1594    Cl1618   2.523       .  S
C1595      C3565   1.496       .  S
C1596      C4755   1.499       .  S
N1597      N1598   1.315       .  A
N1597      N1603   1.309       .  A
N1597     Mn1605   2.170       .  S
N1598      C1606   1.350       .  A
N1599      N1601   1.309       .  A
N1599      N1600   1.318       .  A
N1599     Mn1617   2.168       .  S
N1600      C1607   1.351       .  A
N1601      N1602   1.315       .  A
N1601     Mn1605   2.172       .  S
N1602      C1607   1.352       .  A
N1603      N1604   1.321       .  A
N1603     Mn1617   2.192       .  S
N1604      C1606   1.356       .  A
Mn1605    Cl1618   2.552       .  S
C1606      C2949   1.476       .  S
C1607      C2344   1.467       .  S
N1608      N1609   1.338       .  A
N1608      N1614   1.319       .  A
N1608     Mn1616   2.309       .  S
N1609      C1619   1.375       .  A
N1610      N1611   1.307       .  A
N1610      N1612   1.317       .  A
N1610     Mn1617   2.129       .  S
N1611      C1620   1.336       .  A
N1612      N1613   1.337       .  A
N1612     Mn1616   2.301       .  S
N1613      C1620   1.374       .  A
N1614      N1615   1.312       .  A
N1614     Mn1617   2.158       .  S
N1615      C1619   1.339       .  A
Mn1616    Cl1618   2.562       .  S
Mn1617    Cl1618   2.520       .  S
C1619      C4363   1.507       .  S
C1620      C3355   1.499       .  S
N1621      N1622   1.320       .  A
N1621      N1627   1.309       .  A
N1621     Mn1650   2.187       .  S
N1622      C1629   1.355       .  A
N1623      N1625   1.310       .  A
N1623      N1624   1.317       .  A
N1623     Mn1639   2.179       .  S
N1624      C1630   1.352       .  A
N1625      N1626   1.316       .  A
N1625     Mn1650   2.173       .  S
N1626      C1630   1.352       .  A
N1627      N1628   1.313       .  A
N1627     Mn1639   2.153       .  S
N1628      C1629   1.346       .  A
C1629      C2361   1.466       .  S
C1630      C2666   1.471       .  S
N1631      N1637   1.315       .  A
N1631      N1632   1.339       .  A
N1631     Mn1661   2.309       .  S
N1632      C1640   1.377       .  A
N1633      N1634   1.313       .  A
N1633      N1635   1.317       .  A
N1633     Mn1639   2.157       .  S
N1634      C1641   1.341       .  A
N1635      N1636   1.336       .  A
N1635     Mn1661   2.298       .  S
N1636      C1641   1.374       .  A
N1637      N1638   1.308       .  A
N1637     Mn1639   2.127       .  S
N1638      C1640   1.336       .  A
Mn1639    Cl1663   2.504       .  S
C1640      C2736   1.506       .  S
C1641      C3254   1.507       .  S
N1642      N1643   1.318       .  A
N1642      N1648   1.310       .  A
N1642     Mn1650   2.190       .  S
N1643      C1651   1.354       .  A
N1644      N1646   1.311       .  A
N1644      N1645   1.322       .  A
N1644     Mn1662   2.195       .  S
N1645      C1652   1.356       .  A
N1646      N1647   1.313       .  A
N1646     Mn1650   2.167       .  S
N1647      C1652   1.348       .  A
N1648      N1649   1.317       .  A
N1648     Mn1662   2.167       .  S
N1649      C1651   1.349       .  A
Mn1650    Cl1663   2.553       .  S
C1651      C2302   1.468       .  S
C1652      C2316   1.468       .  S
N1653      N1654   1.335       .  A
N1653      N1659   1.318       .  A
N1653     Mn1661   2.304       .  S
N1654      C1664   1.372       .  A
N1655      N1656   1.311       .  A
N1655      N1657   1.320       .  A
N1655     Mn1662   2.148       .  S
N1656      C1665   1.336       .  A
N1657      N1658   1.336       .  A
N1657     Mn1661   2.305       .  S
N1658      C1665   1.372       .  A
N1659      N1660   1.308       .  A
N1659     Mn1662   2.123       .  S
N1660      C1664   1.333       .  A
Mn1661    Cl1663   2.576       .  S
Mn1662    Cl1663   2.524       .  S
C1664      C2806   1.482       .  S
C1665      C3044   1.487       .  S
N1666      N1667   1.338       .  A
N1666      N1672   1.318       .  A
N1666     Mn1695   2.312       .  S
N1667      C1674   1.375       .  A
N1668      N1670   1.317       .  A
N1668      N1669   1.310       .  A
N1668     Mn1684   2.130       .  S
N1669      C1675   1.335       .  A
N1670      N1671   1.337       .  A
N1670     Mn1695   2.310       .  S
N1671      C1675   1.375       .  A
N1672      N1673   1.311       .  A
N1672     Mn1684   2.143       .  S
N1673      C1674   1.337       .  A
C1674      C4587   1.497       .  S
C1675      C4083   1.494       .  S
N1676      N1682   1.311       .  A
N1676      N1677   1.317       .  A
N1676     Mn1706   2.183       .  S
N1677      C1685   1.353       .  A
N1678      N1679   1.315       .  A
N1678      N1680   1.309       .  A
N1678     Mn1684   2.157       .  S
N1679      C1686   1.347       .  A
N1680      N1681   1.317       .  A
N1680     Mn1706   2.179       .  S
N1681      C1686   1.353       .  A
N1682      N1683   1.317       .  A
N1682     Mn1684   2.174       .  S
N1683      C1685   1.349       .  A
Mn1684    Cl1708   2.518       .  S
C1685      C2274   1.467       .  S
C1686      C2288   1.464       .  S
N1687      N1688   1.338       .  A
N1687      N1693   1.318       .  A
N1687     Mn1695   2.313       .  S
N1688      C1696   1.376       .  A
N1689      N1691   1.318       .  A
N1689      N1690   1.311       .  A
N1689     Mn1707   2.141       .  S
N1690      C1697   1.337       .  A
N1691      N1692   1.336       .  A
N1691     Mn1695   2.304       .  S
N1692      C1697   1.374       .  A
N1693      N1694   1.308       .  A
N1693     Mn1707   2.134       .  S
N1694      C1696   1.336       .  A
Mn1695    Cl1708   2.566       .  S
C1696      C3845   1.502       .  S
C1697      C4349   1.496       .  S
N1698      N1699   1.315       .  A
N1698      N1704   1.310       .  A
N1698     Mn1706   2.178       .  S
N1699      C1709   1.352       .  A
N1700      N1701   1.319       .  A
N1700      N1702   1.310       .  A
N1700     Mn1707   2.177       .  S
N1701      C1710   1.351       .  A
N1702      N1703   1.317       .  A
N1702     Mn1706   2.184       .  S
N1703      C1710   1.353       .  A
N1704      N1705   1.318       .  A
N1704     Mn1707   2.170       .  S
N1705      C1709   1.351       .  A
Mn1706    Cl1708   2.557       .  S
Mn1707    Cl1708   2.519       .  S
C1709      C2347   1.466       .  S
C1710      C2977   1.473       .  S
N1711      N1712   1.319       .  A
N1711      N1717   1.310       .  A
N1711     Mn1740   2.186       .  S
N1712      C1719   1.355       .  A
N1713      N1715   1.310       .  A
N1713      N1714   1.318       .  A
N1713     Mn1729   2.173       .  S
N1714      C1720   1.352       .  A
N1715      N1716   1.315       .  A
N1715     Mn1740   2.176       .  S
N1716      C1720   1.352       .  A
N1717      N1718   1.317       .  A
N1717     Mn1729   2.170       .  S
N1718      C1719   1.349       .  A
C1719      C2319   1.470       .  S
C1720      C2246   1.468       .  S
N1721      N1727   1.318       .  A
N1721      N1722   1.338       .  A
N1721     Mn1751   2.312       .  S
N1722      C1730   1.375       .  A
N1723      N1724   1.309       .  A
N1723      N1725   1.317       .  A
N1723     Mn1729   2.138       .  S
N1724      C1731   1.336       .  A
N1725      N1726   1.340       .  A
N1725     Mn1751   2.320       .  S
N1726      C1731   1.378       .  A
N1727      N1728   1.311       .  A
N1727     Mn1729   2.143       .  S
N1728      C1730   1.337       .  A
Mn1729    Cl1753   2.517       .  S
C1730      C2260   1.501       .  S
C1731      C2778   1.511       .  S
N1732      N1733   1.318       .  A
N1732      N1738   1.310       .  A
N1732     Mn1740   2.186       .  S
N1733      C1741   1.354       .  A
N1734      N1736   1.310       .  A
N1734      N1735   1.317       .  A
N1734     Mn1752   2.178       .  S
N1735      C1742   1.351       .  A
N1736      N1737   1.318       .  A
N1736     Mn1740   2.176       .  S
N1737      C1742   1.353       .  A
N1738      N1739   1.318       .  A
N1738     Mn1752   2.179       .  S
N1739      C1741   1.352       .  A
Mn1740    Cl1753   2.563       .  S
C1741      C2515   1.473       .  S
C1742      C2375   1.469       .  S
N1743      N1744   1.335       .  A
N1743      N1749   1.318       .  A
N1743     Mn1751   2.301       .  S
N1744      C1754   1.373       .  A
N1745      N1746   1.311       .  A
N1745      N1747   1.319       .  A
N1745     Mn1752   2.151       .  S
N1746      C1755   1.339       .  A
N1747      N1748   1.337       .  A
N1747     Mn1751   2.304       .  S
N1748      C1755   1.374       .  A
N1749      N1750   1.312       .  A
N1749     Mn1752   2.146       .  S
N1750      C1754   1.339       .  A
Mn1751    Cl1753   2.571       .  S
Mn1752    Cl1753   2.514       .  S
C1754      C2456   1.500       .  S
C1755      C2232   1.501       .  S
N1756      N1757   1.341       .  A
N1756      N1762   1.316       .  A
N1756     Mn1785   2.323       .  S
N1757      C1764   1.380       .  A
N1758      N1760   1.317       .  A
N1758      N1759   1.308       .  A
N1758     Mn1774   2.140       .  S
N1759      C1765   1.337       .  A
N1760      N1761   1.335       .  A
N1760     Mn1785   2.287       .  S
N1761      C1765   1.373       .  A
N1762      N1763   1.305       .  A
N1762     Mn1774   2.115       .  S
N1763      C1764   1.331       .  A
C1764      C4741   1.505       .  S
C1765      C2204   1.498       .  S
N1766      N1772   1.309       .  A
N1766      N1767   1.316       .  A
N1766     Mn1796   2.178       .  S
N1767      C1775   1.354       .  A
N1768      N1769   1.319       .  A
N1768      N1770   1.308       .  A
N1768     Mn1774   2.177       .  S
N1769      C1776   1.352       .  A
N1770      N1771   1.315       .  A
N1770     Mn1796   2.170       .  S
N1771      C1776   1.352       .  A
N1772      N1773   1.315       .  A
N1772     Mn1774   2.157       .  S
N1773      C1775   1.347       .  A
Mn1774    Cl1798   2.500       .  S
C1775      C2568   1.463       .  S
C1776      C2333   1.471       .  S
N1777      N1778   1.339       .  A
N1777      N1783   1.319       .  A
N1777     Mn1785   2.327       .  S
N1778      C1786   1.377       .  A
N1779      N1781   1.316       .  A
N1779      N1780   1.306       .  A
N1779     Mn1797   2.135       .  S
N1780      C1787   1.336       .  A
N1781      N1782   1.337       .  A
N1781     Mn1785   2.291       .  S
N1782      C1787   1.374       .  A
N1783      N1784   1.311       .  A
N1783     Mn1797   2.144       .  S
N1784      C1786   1.339       .  A
Mn1785    Cl1798   2.589       .  S
C1786      C2263   1.511       .  S
C1787      C4559   1.499       .  S
N1788      N1789   1.316       .  A
N1788      N1794   1.309       .  A
N1788     Mn1796   2.169       .  S
N1789      C1799   1.352       .  A
N1790      N1791   1.319       .  A
N1790      N1792   1.310       .  A
N1790     Mn1797   2.180       .  S
N1791      C1800   1.353       .  A
N1792      N1793   1.314       .  A
N1792     Mn1796   2.168       .  S
N1793      C1800   1.350       .  A
N1794      N1795   1.316       .  A
N1794     Mn1797   2.173       .  S
N1795      C1799   1.351       .  A
Mn1796    Cl1798   2.554       .  S
Mn1797    Cl1798   2.504       .  S
C1799      C2291   1.462       .  S
C1800      C2218   1.469       .  S
N1801      N1802   1.316       .  A
N1801      N1807   1.309       .  A
N1801     Mn1830   2.176       .  S
N1802      C1809   1.352       .  A
N1803      N1805   1.309       .  A
N1803      N1804   1.316       .  A
N1803     Mn1819   2.154       .  S
N1804      C1810   1.348       .  A
N1805      N1806   1.315       .  A
N1805     Mn1830   2.179       .  S
N1806      C1810   1.353       .  A
N1807      N1808   1.319       .  A
N1807     Mn1819   2.180       .  S
N1808      C1809   1.352       .  A
C1809      C2963   1.469       .  S
C1810      C2585   1.461       .  S
N1811      N1817   1.318       .  A
N1811      N1812   1.339       .  A
N1811     Mn1841   2.319       .  S
N1812      C1820   1.377       .  A
N1813      N1814   1.303       .  A
N1813      N1815   1.317       .  A
N1813     Mn1819   2.118       .  S
N1814      C1821   1.332       .  A
N1815      N1816   1.341       .  A
N1815     Mn1841   2.316       .  S
N1816      C1821   1.378       .  A
N1817      N1818   1.311       .  A
N1817     Mn1819   2.142       .  S
N1818      C1820   1.338       .  A
Mn1819    Cl1843   2.515       .  S
C1820      C2529   1.508       .  S
C1821      C4265   1.500       .  S
N1822      N1823   1.316       .  A
N1822      N1828   1.309       .  A
N1822     Mn1830   2.173       .  S
N1823      C1831   1.352       .  A
N1824      N1826   1.310       .  A
N1824      N1825   1.318       .  A
N1824     Mn1842   2.182       .  S
N1825      C1832   1.353       .  A
N1826      N1827   1.317       .  A
N1826     Mn1830   2.180       .  S
N1827      C1832   1.352       .  A
N1828      N1829   1.318       .  A
N1828     Mn1842   2.174       .  S
N1829      C1831   1.351       .  A
Mn1830    Cl1843   2.561       .  S
C1831      C2221   1.470       .  S
C1832      C2277   1.472       .  S
N1833      N1834   1.337       .  A
N1833      N1839   1.318       .  A
N1833     Mn1841   2.305       .  S
N1834      C1844   1.374       .  A
N1835      N1836   1.311       .  A
N1835      N1837   1.319       .  A
N1835     Mn1842   2.150       .  S
N1836      C1845   1.339       .  A
N1837      N1838   1.337       .  A
N1837     Mn1841   2.314       .  S
N1838      C1845   1.375       .  A
N1839      N1840   1.310       .  A
N1839     Mn1842   2.141       .  S
N1840      C1844   1.337       .  A
Mn1841    Cl1843   2.571       .  S
Mn1842    Cl1843   2.513       .  S
C1844      C4055   1.499       .  S
C1845      C2235   1.506       .  S
N1846      N1847   1.337       .  A
N1846      N1852   1.318       .  A
N1846     Mn1875   2.311       .  S
N1847      C1854   1.374       .  A
N1848      N1850   1.317       .  A
N1848      N1849   1.309       .  A
N1848     Mn1864   2.135       .  S
N1849      C1855   1.337       .  A
N1850      N1851   1.335       .  A
N1850     Mn1875   2.303       .  S
N1851      C1855   1.373       .  A
N1852      N1853   1.308       .  A
N1852     Mn1864   2.125       .  S
N1853      C1854   1.332       .  A
C1854      C3058   1.482       .  S
C1855      C2207   1.496       .  S
N1856      N1862   1.309       .  A
N1856      N1857   1.314       .  A
N1856     Mn1886   2.178       .  S
N1857      C1865   1.352       .  A
N1858      N1859   1.321       .  A
N1858      N1860   1.310       .  A
N1858     Mn1864   2.183       .  S
N1859      C1866   1.353       .  A
N1860      N1861   1.315       .  A
N1860     Mn1886   2.175       .  S
N1861      C1866   1.351       .  A
N1862      N1863   1.318       .  A
N1862     Mn1864   2.160       .  S
N1863      C1865   1.349       .  A
Mn1864    Cl1888   2.535       .  S
C1865      C2249   1.466       .  S
C1866      C2305   1.467       .  S
N1867      N1868   1.338       .  A
N1867      N1873   1.319       .  A
N1867     Mn1875   2.318       .  S
N1868      C1876   1.376       .  A
N1869      N1871   1.319       .  A
N1869      N1870   1.313       .  A
N1869     Mn1887   2.157       .  S
N1870      C1877   1.339       .  A
N1871      N1872   1.336       .  A
N1871     Mn1875   2.301       .  S
N1872      C1877   1.373       .  A
N1873      N1874   1.312       .  A
N1873     Mn1887   2.151       .  S
N1874      C1876   1.339       .  A
Mn1875    Cl1888   2.558       .  S
C1876      C2557   1.509       .  S
C1877      C2431   1.496       .  S
N1878      N1879   1.315       .  A
N1878      N1884   1.312       .  A
N1878     Mn1886   2.178       .  S
N1879      C1889   1.351       .  A
N1880      N1881   1.320       .  A
N1880      N1882   1.309       .  A
N1880     Mn1887   2.184       .  S
N1881      C1890   1.356       .  A
N1882      N1883   1.313       .  A
N1882     Mn1886   2.168       .  S
N1883      C1890   1.348       .  A
N1884      N1885   1.319       .  A
N1884     Mn1887   2.183       .  S
N1885      C1889   1.353       .  A
Mn1886    Cl1888   2.543       .  S
Mn1887    Cl1888   2.531       .  S
C1889      C2652   1.470       .  S
C1890      C2543   1.479       .  S
N1891      N1892   1.342       .  A
N1891      N1897   1.319       .  A
N1891     Mn1920   2.331       .  S
N1892      C1899   1.379       .  A
N1893      N1895   1.318       .  A
N1893      N1894   1.309       .  A
N1893     Mn1909   2.139       .  S
N1894      C1900   1.336       .  A
N1895      N1896   1.336       .  A
N1895     Mn1920   2.298       .  S
N1896      C1900   1.372       .  A
N1897      N1898   1.307       .  A
N1897     Mn1909   2.134       .  S
N1898      C1899   1.334       .  A
C1899      C4503   1.507       .  S
C1900      C4125   1.490       .  S
N1901      N1907   1.309       .  A
N1901      N1902   1.314   1_556  A
N1901     Mn1931   2.169       .  S
N1902      C1910   1.351   1_554  A
N1903      N1904   1.319       .  A
N1903      N1905   1.309       .  A
N1903     Mn1909   2.178       .  S
N1904      C1911   1.353       .  A
N1905      N1906   1.315   1_556  A
N1905     Mn1931   2.171       .  S
N1906      C1911   1.351   1_554  A
N1907      N1908   1.319       .  A
N1907     Mn1909   2.176       .  S
N1908      C1910   1.352       .  A
Mn1909    Cl1933   2.516       .  S
C1910      C2876   1.468   1_556  S
C1911      C2414   1.467   1_556  S
N1912      N1913   1.339       .  A
N1912      N1918   1.318       .  A
N1912     Mn1920   2.319       .  S
N1913      C1921   1.376       .  A
N1914      N1916   1.318       .  A
N1914      N1915   1.311       .  A
N1914     Mn1932   2.139       .  S
N1915      C1922   1.338       .  A
N1916      N1917   1.336       .  A
N1916     Mn1920   2.311       .  S
N1917      C1922   1.375       .  A
N1918      N1919   1.312       .  A
N1918     Mn1932   2.152       .  S
N1919      C1921   1.339       .  A
Mn1920    Cl1933   2.569       .  S
C1921      C4209   1.509       .  S
C1922      C4377   1.503       .  S
N1923      N1924   1.314   1_556  A
N1923      N1929   1.310       .  A
N1923     Mn1931   2.166       .  S
N1924      C1934   1.350   1_554  A
N1925      N1926   1.315       .  A
N1925      N1927   1.309       .  A
N1925     Mn1932   2.165       .  S
N1926      C1935   1.349       .  A
N1927      N1928   1.317   1_556  A
N1927     Mn1931   2.170       .  S
N1928      C1935   1.352   1_554  A
N1929      N1930   1.318       .  A
N1929     Mn1932   2.180       .  S
N1930      C1934   1.353       .  A
Mn1931    Cl1933   2.557       .  S
Mn1932    Cl1933   2.517       .  S
C1934      C2193   1.469   1_556  S
C1935      C3016   1.464   1_556  S
N1936      N1937   1.318   1_565  A
N1936      N1942   1.309       .  A
N1936     Mn1965   2.183       .  S
N1937      C1944   1.355   1_545  A
N1938      N1940   1.309       .  A
N1938      N1939   1.316       .  A
N1938     Mn1954   2.174       .  S
N1939      C1945   1.351       .  A
N1940      N1941   1.318   1_565  A
N1940     Mn1965   2.180       .  S
N1941      C1945   1.353   1_545  A
N1942      N1943   1.318       .  A
N1942     Mn1954   2.178       .  S
N1943      C1944   1.351       .  A
C1944      C2487   1.480   1_565  S
C1945      C3327   1.471   1_565  S
N1946      N1952   1.317       .  A
N1946      N1947   1.335       .  A
N1946     Mn1976   2.296       .  S
N1947      C1955   1.373       .  A
N1948      N1949   1.311       .  A
N1948      N1950   1.319       .  A
N1948     Mn1954   2.147       .  S
N1949      C1956   1.338       .  A
N1950      N1951   1.338       .  A
N1950     Mn1976   2.316       .  S
N1951      C1956   1.376       .  A
N1952      N1953   1.310       .  A
N1952     Mn1954   2.143       .  S
N1953      C1955   1.338       .  A
Mn1954    Cl1978   2.510       .  S
C1955      C3523   1.501       .  S
C1956      C4839   1.507       .  S
N1957      N1958   1.315       .  A
N1957      N1963   1.309       .  A
N1957     Mn1965   2.172       .  S
N1958      C1966   1.352       .  A
N1959      N1961   1.310       .  A
N1959      N1960   1.317       .  A
N1959     Mn1977   2.161       .  S
N1960      C1967   1.348       .  A
N1961      N1962   1.313       .  A
N1961     Mn1965   2.174       .  S
N1962      C1967   1.352       .  A
N1963      N1964   1.318       .  A
N1963     Mn1977   2.168       .  S
N1964      C1966   1.348       .  A
Mn1965    Cl1978   2.565       .  S
C1966      C2179   1.465       .  S
C1967      C2904   1.463       .  S
N1968      N1969   1.335       .  A
N1968      N1974   1.318       .  A
N1968     Mn1976   2.297       .  S
N1969      C1979   1.370       .  A
N1970      N1971   1.308       .  A
N1970      N1972   1.317       .  A
N1970     Mn1977   2.127       .  S
N1971      C1980   1.334       .  A
N1972      N1973   1.340       .  A
N1972     Mn1976   2.327       .  S
N1973      C1980   1.379       .  A
N1974      N1975   1.312       .  A
N1974     Mn1977   2.140       .  S
N1975      C1979   1.337       .  A
Mn1976    Cl1978   2.566       .  S
Mn1977    Cl1978   2.518       .  S
C1979      C4727   1.486       .  S
C1980      C3369   1.507       .  S
N1981      N1982   1.317   1_556  A
N1981      N1987   1.311       .  A
N1981     Mn2010   2.175       .  S
N1982      C1989   1.352   1_554  A
N1983      N1985   1.310       .  A
N1983      N1984   1.318       .  A
N1983     Mn1999   2.179       .  S
N1984      C1990   1.353       .  A
N1985      N1986   1.314   1_556  A
N1985     Mn2010   2.169       .  S
N1986      C1990   1.350   1_554  A
N1987      N1988   1.317       .  A
N1987     Mn1999   2.179       .  S
N1988      C1989   1.351       .  A
C1989      C3131   1.469   1_556  S
C1990      C2162   1.466   1_556  S
N1991      N1997   1.318       .  A
N1991      N1992   1.340       .  A
N1991     Mn2021   2.319       .  S
N1992      C2000   1.377       .  A
N1993      N1994   1.313       .  A
N1993      N1995   1.319       .  A
N1993     Mn1999   2.160       .  S
N1994      C2001   1.341       .  A
N1995      N1996   1.336       .  A
N1995     Mn2021   2.309       .  S
N1996      C2001   1.374       .  A
N1997      N1998   1.312       .  A
N1997     Mn1999   2.152       .  S
N1998      C2000   1.339       .  A
Mn1999    Cl2023   2.513       .  S
C2000      C3873   1.513       .  S
C2001      C4713   1.509       .  S
N2002      N2003   1.316       .  A
N2002      N2008   1.308       .  A
N2002     Mn2010   2.177       .  S
N2003      C2011   1.353       .  A
N2004      N2006   1.310       .  A
N2004      N2005   1.318       .  A
N2004     Mn2022   2.170       .  S
N2005      C2012   1.350       .  A
N2006      N2007   1.317   1_556  A
N2006     Mn2010   2.184       .  S
N2007      C2012   1.354   1_554  A
N2008      N2009   1.318       .  A
N2008     Mn2022   2.162       .  S
N2009      C2011   1.350       .  A
Mn2010    Cl2023   2.561       .  S
C2011      C2753   1.467   1_556  S
C2012      C2445   1.469   1_556  S
N2013      N2014   1.339       .  A
N2013      N2019   1.317       .  A
N2013     Mn2021   2.316       .  S
N2014      C2024   1.377       .  A
N2015      N2016   1.307       .  A
N2015      N2017   1.317       .  A
N2015     Mn2022   2.131       .  S
N2016      C2025   1.335       .  A
N2017      N2018   1.339       .  A
N2017     Mn2021   2.311       .  S
N2018      C2025   1.376       .  A
N2019      N2020   1.307       .  A
N2019     Mn2022   2.127       .  S
N2020      C2024   1.335       .  A
Mn2021    Cl2023   2.577       .  S
Mn2022    Cl2023   2.512       .  S
C2024      C4629   1.504       .  S
C2025      C3999   1.500       .  S
N2026      N2027   1.338       .  A
N2026      N2032   1.318       .  A
N2026     Mn2055   2.314       .  S
N2027      C2034   1.377       .  A
N2028      N2030   1.319       .  A
N2028      N2029   1.312       .  A
N2028     Mn2044   2.151       .  S
N2029      C2035   1.338       .  A
N2030      N2031   1.337       .  A
N2030     Mn2055   2.310       .  S
N2031      C2035   1.374       .  A
N2032      N2033   1.308       .  A
N2032     Mn2044   2.134       .  S
N2033      C2034   1.336       .  A
C2034      C3929   1.505       .  S
C2035      C3719   1.500       .  S
N2036      N2042   1.310       .  A
N2036      N2037   1.317       .  A
N2036     Mn2066   2.178       .  S
N2037      C2045   1.353       .  A
N2038      N2039   1.318       .  A
N2038      N2040   1.309       .  A
N2038     Mn2044   2.176       .  S
N2039      C2046   1.351       .  A
N2040      N2041   1.316       .  A
N2040     Mn2066   2.171       .  S
N2041      C2046   1.351       .  A
N2042      N2043   1.316       .  A
N2042     Mn2044   2.171       .  S
N2043      C2045   1.350       .  A
Mn2044    Cl2068   2.510       .  S
C2045      C3100   1.469       .  S
C2046      C2767   1.466       .  S
N2047      N2048   1.339       .  A
N2047      N2053   1.318       .  A
N2047     Mn2055   2.318       .  S
N2048      C2056   1.378       .  A
N2049      N2051   1.317       .  A
N2049      N2050   1.307       .  A
N2049     Mn2067   2.131       .  S
N2050      C2057   1.335       .  A
N2051      N2052   1.340       .  A
N2051     Mn2055   2.312       .  S
N2052      C2057   1.377       .  A
N2053      N2054   1.308       .  A
N2053     Mn2067   2.134       .  S
N2054      C2056   1.336       .  A
Mn2055    Cl2068   2.579       .  S
C2056      C3803   1.507       .  S
C2057      C3887   1.506       .  S
N2058      N2059   1.316       .  A
N2058      N2064   1.309       .  A
N2058     Mn2066   2.175       .  S
N2059      C2069   1.353       .  A
N2060      N2061   1.319       .  A
N2060      N2062   1.309       .  A
N2060     Mn2067   2.170       .  S
N2061      C2070   1.351       .  A
N2062      N2063   1.315       .  A
N2062     Mn2066   2.175       .  S
N2063      C2070   1.352       .  A
N2064      N2065   1.317       .  A
N2064     Mn2067   2.164       .  S
N2065      C2069   1.349       .  A
Mn2066    Cl2068   2.563       .  S
Mn2067    Cl2068   2.508       .  S
C2069      C2165   1.466       .  S
C2070      C3159   1.469       .  S
N2071      N2072   1.334       .  A
N2071      N2077   1.318       .  A
N2071     Mn2100   2.293       .  S
N2072      C2079   1.373       .  A
N2073      N2075   1.318       .  A
N2073      N2074   1.306       .  A
N2073     Mn2089   2.130       .  S
N2074      C2080   1.333       .  A
N2075      N2076   1.339       .  A
N2075     Mn2100   2.311       .  S
N2076      C2080   1.376       .  A
N2077      N2078   1.307       .  A
N2077     Mn2089   2.131       .  S
N2078      C2079   1.336       .  A
C2079      C4335   1.494       .  S
C2080      C3439   1.496       .  S
N2081      N2087   1.308       .  A
N2081      N2082   1.317       .  A
N2081     Mn2111   2.181       .  S
N2082      C2090   1.354       .  A
N2083      N2084   1.320       .  A
N2083      N2085   1.308       .  A
N2083     Mn2089   2.180       .  S
N2084      C2091   1.354       .  A
N2085      N2086   1.314       .  A
N2085     Mn2111   2.165       .  S
N2086      C2091   1.351       .  A
N2087      N2088   1.316       .  A
N2087     Mn2089   2.170       .  S
N2088      C2090   1.351       .  A
Mn2089    Cl2113   2.505       .  S
C2090      C3310   1.468       .  S
C2091      C2820   1.473       .  S
N2092      N2093   1.338       .  A
N2092      N2098   1.318       .  A
N2092     Mn2100   2.309       .  S
N2093      C2101   1.376       .  A
N2094      N2096   1.318       .  A
N2094      N2095   1.309       .  A
N2094     Mn2112   2.142       .  S
N2095      C2102   1.338       .  A
N2096      N2097   1.339       .  A
N2096     Mn2100   2.311       .  S
N2097      C2102   1.376       .  A
N2098      N2099   1.308       .  A
N2098     Mn2112   2.140       .  S
N2099      C2101   1.336       .  A
Mn2100    Cl2113   2.574       .  S
C2101      C3383   1.504       .  S
C2102      C4223   1.506       .  S
N2103      N2104   1.314       .  A
N2103      N2109   1.309       .  A
N2103     Mn2111   2.175       .  S
N2104      C2114   1.352       .  A
N2105      N2106   1.318       .  A
N2105      N2107   1.309       .  A
N2105     Mn2112   2.174       .  S
N2106      C2115   1.352       .  A
N2107      N2108   1.313       .  A
N2107     Mn2111   2.161       .  S
N2108      C2115   1.350       .  A
N2109      N2110   1.321       .  A
N2109     Mn2112   2.178       .  S
N2110      C2114   1.353       .  A
Mn2111    Cl2113   2.562       .  S
Mn2112    Cl2113   2.509       .  S
C2114      C2932   1.474       .  S
C2115      C2176   1.465       .  S
N2116      N2117   1.316       .  A
N2116      N2122   1.310       .  A
N2116     Mn2145   2.180       .  S
N2117      C2124   1.353       .  A
N2118      N2120   1.310       .  A
N2118      N2119   1.318       .  A
N2118     Mn2134   2.180       .  S
N2119      C2125   1.352       .  A
N2120      N2121   1.318       .  A
N2120     Mn2145   2.185       .  S
N2121      C2125   1.354       .  A
N2122      N2123   1.320       .  A
N2122     Mn2134   2.185       .  S
N2123      C2124   1.353       .  A
C2124      C2403   1.478   1_565  S
C2125      C3240   1.472       .  S
N2126      N2132   1.320       .  A
N2126      N2127   1.336       .  A
N2126     Mn2156   2.305       .  S
N2127      C2135   1.371       .  A
N2128      N2129   1.311       .  A
N2128      N2130   1.318       .  A
N2128     Mn2134   2.146       .  S
N2129      C2136   1.339       .  A
N2130      N2131   1.336       .  A
N2130     Mn2156   2.304       .  S
N2131      C2136   1.374       .  A
N2132      N2133   1.312       .  A
N2132     Mn2134   2.153       .  S
N2133      C2135   1.338       .  A
Mn2134    Cl2158   2.520       .  S
C2135      C3621   1.490       .  S
C2136      C4433   1.506       .  S
N2137      N2138   1.316       .  A
N2137      N2143   1.311       .  A
N2137     Mn2145   2.183       .  S
N2138      C2146   1.353       .  A
N2139      N2141   1.310       .  A
N2139      N2140   1.316       .  A
N2139     Mn2157   2.169       .  S
N2140      C2147   1.350       .  A
N2141      N2142   1.317       .  A
N2141     Mn2145   2.178       .  S
N2142      C2147   1.352       .  A
N2143      N2144   1.318       .  A
N2143     Mn2157   2.173       .  S
N2144      C2146   1.350       .  A
Mn2145    Cl2158   2.559       .  S
C2146      C3033   1.465       .  S
C2147      C2190   1.467   1_565  S
N2148      N2149   1.340       .  A
N2148      N2154   1.317       .  A
N2148     Mn2156   2.313       .  S
N2149      C2159   1.375       .  A
N2150      N2151   1.312       .  A
N2150      N2152   1.317       .  A
N2150     Mn2157   2.148       .  S
N2151      C2160   1.339       .  A
N2152      N2153   1.337       .  A
N2152     Mn2156   2.311       .  S
N2153      C2160   1.376       .  A
N2154      N2155   1.310       .  A
N2154     Mn2157   2.145       .  S
N2155      C2159   1.337       .  A
Mn2156    Cl2158   2.571       .  S
Mn2157    Cl2158   2.519       .  S
C2159      C4391   1.502       .  S
C2160      C3831   1.508       .  S
C2161      C2162   1.402       .  A
C2161      C2166   1.398   1_455  A
C2161      H2168   1.084   1_554  S
C2162      C2163   1.408       .  A
C2163      C2164   1.394       .  A
C2163      N2170   1.433       .  S
C2164      C2165   1.400   1_455  A
C2164      H2169   1.083       .  S
C2165      C2166   1.410       .  A
C2166      N2167   1.433       .  S
N2167      H2171   1.046       .  S
N2167      H2172   1.046       .  S
N2170      H2173   1.046       .  S
N2170      H2174   1.046       .  S
C2175      C2176   1.402       .  A
C2175      C2180   1.394   1_645  A
C2175      H2182   1.084       .  S
C2176      C2177   1.406   1_655  A
C2177      C2178   1.392       .  A
C2177      N2184   1.431       .  S
C2178      C2179   1.400   1_545  A
C2178      H2183   1.084       .  S
C2179      C2180   1.415       .  A
C2180      N2181   1.432       .  S
N2181      H2185   1.045       .  S
N2181      H2186   1.045       .  S
N2184      H2187   1.046       .  S
N2184      H2188   1.046       .  S
C2189      C2190   1.403       .  A
C2189      C2194   1.397       .  A
C2189      H2196   1.084   1_545  S
C2190      C2191   1.409       .  A
C2191      C2192   1.398       .  A
C2191      N2198   1.438       .  S
C2192      C2193   1.403       .  A
C2192      H2197   1.083       .  S
C2193      C2194   1.408       .  A
C2194      N2195   1.433   1_554  S
N2195      H2199   1.046   1_545  S
N2195      H2200   1.046       .  S
N2198      H2201   1.046       .  S
N2198      H2202   1.046       .  S
C2203      C2204   1.419       .  A
C2203      C2208   1.408       .  A
C2203      H2210   1.083       .  S
C2204      C2205   1.406       .  A
C2205      C2206   1.412       .  A
C2205      N2212   1.437       .  S
C2206      C2207   1.419       .  A
C2206      H2211   1.083       .  S
C2207      C2208   1.403       .  A
C2208      N2209   1.437       .  S
N2209      H2213   1.046       .  S
N2209      H2214   1.046       .  S
N2212      H2215   1.046       .  S
N2212      H2216   1.045       .  S
C2217      C2218   1.402       .  A
C2217      C2222   1.399       .  A
C2217      H2224   1.084       .  S
C2218      C2219   1.411       .  A
C2219      C2220   1.398       .  A
C2219      N2226   1.438       .  S
C2220      C2221   1.402       .  A
C2220      H2225   1.084       .  S
C2221      C2222   1.410       .  A
C2222      N2223   1.433       .  S
N2223      H2227   1.046       .  S
N2223      H2228   1.046       .  S
N2226      H2229   1.045       .  S
N2226      H2230   1.046       .  S
C2231      C2232   1.417       .  A
C2231      C2236   1.411       .  A
C2231      H2238   1.083       .  S
C2232      C2233   1.406       .  A
C2233      C2234   1.415       .  A
C2233      N2240   1.438       .  S
C2234      C2235   1.420       .  A
C2234      H2239   1.083       .  S
C2235      C2236   1.403       .  A
C2236      N2237   1.431       .  S
N2237      H2241   1.046       .  S
N2237      H2242   1.046       .  S
N2240      H2243   1.046       .  S
N2240      H2244   1.045       .  S
C2245      C2246   1.403       .  A
C2245      C2250   1.396       .  A
C2245      H2252   1.084       .  S
C2246      C2247   1.407       .  A
C2247      C2248   1.394       .  A
C2247      N2254   1.434       .  S
C2248      C2249   1.399       .  A
C2248      H2253   1.084       .  S
C2249      C2250   1.414       .  A
C2250      N2251   1.432       .  S
N2251      H2255   1.045       .  S
N2251      H2256   1.046       .  S
N2254      H2257   1.046       .  S
N2254      H2258   1.046       .  S
C2259      C2260   1.416       .  A
C2259      C2264   1.411       .  A
C2259      H2266   1.084       .  S
C2260      C2261   1.408       .  A
C2261      C2262   1.409       .  A
C2261      N2268   1.432       .  S
C2262      C2263   1.421       .  A
C2262      H2267   1.083       .  S
C2263      C2264   1.411       .  A
C2264      N2265   1.431       .  S
N2265      H2269   1.045       .  S
N2265      H2270   1.046       .  S
N2268      H2271   1.045       .  S
N2268      H2272   1.045       .  S
C2273      C2274   1.400       .  A
C2273      C2278   1.393       .  A
C2273      H2280   1.084       .  S
C2274      C2275   1.411       .  A
C2275      C2276   1.401       .  A
C2275      N2282   1.438       .  S
C2276      C2277   1.403       .  A
C2276      H2281   1.083       .  S
C2277      C2278   1.413       .  A
C2278      N2279   1.431       .  S
N2279      H2283   1.042       .  S
N2279      H2284   1.046       .  S
N2282      H2285   1.046       .  S
N2282      H2286   1.046       .  S
C2287      C2288   1.402       .  A
C2287      C2292   1.395       .  A
C2287      H2294   1.084       .  S
C2288      C2289   1.416       .  A
C2289      C2290   1.390       .  A
C2289      N2296   1.433       .  S
C2290      C2291   1.400       .  A
C2290      H2295   1.084       .  S
C2291      C2292   1.406       .  A
C2292      N2293   1.433       .  S
N2293      H2297   1.046       .  S
N2293      H2298   1.046       .  S
N2296      H2299   1.045       .  S
N2296      H2300   1.045       .  S
C2301      C2302   1.400       .  A
C2301      C2306   1.398       .  A
C2301      H2308   1.084       .  S
C2302      C2303   1.413       .  A
C2303      C2304   1.403       .  A
C2303      N2310   1.438       .  S
C2304      C2305   1.402       .  A
C2304      H2309   1.084       .  S
C2305      C2306   1.408       .  A
C2306      N2307   1.437       .  S
N2307      H2311   1.045       .  S
N2307      H2312   1.046       .  S
N2310      H2313   1.046       .  S
N2310      H2314   1.046       .  S
C2315      C2316   1.400       .  A
C2315      C2320   1.400       .  A
C2315      H2322   1.084       .  S
C2316      C2317   1.409       .  A
C2317      C2318   1.397       .  A
C2317      N2324   1.433       .  S
C2318      C2319   1.401       .  A
C2318      H2323   1.084       .  S
C2319      C2320   1.412       .  A
C2320      N2321   1.432       .  S
N2321      H2325   1.045       .  S
N2321      H2326   1.045       .  S
N2324      H2327   1.046       .  S
N2324      H2328   1.046       .  S
C2329      C2330   1.405       .  A
C2329      C2334   1.404       .  A
C2329      H2336   1.083       .  S
C2330      C2331   1.416       .  A
C2331      C2332   1.390       .  A
C2331      N2338   1.434       .  S
C2332      C2333   1.400       .  A
C2332      H2337   1.084       .  S
C2333      C2334   1.411       .  A
C2334      N2335   1.437       .  S
N2335      H2339   1.045       .  S
N2335      H2340   1.046       .  S
N2338      H2341   1.046       .  S
N2338      H2342   1.043       .  S
C2343      C2344   1.401       .  A
C2343      C2348   1.397       .  A
C2343      H2350   1.083       .  S
C2344      C2345   1.409       .  A
C2345      C2346   1.398       .  A
C2345      N2352   1.433       .  S
C2346      C2347   1.403       .  A
C2346      H2351   1.084       .  S
C2347      C2348   1.409       .  A
C2348      N2349   1.438       .  S
N2349      H2353   1.046       .  S
N2349      H2354   1.046       .  S
N2352      H2355   1.046       .  S
N2352      H2356   1.046       .  S
C2357      C2358   1.398       .  A
C2357      C2362   1.393       .  A
C2357      H2364   1.084       .  S
C2358      C2359   1.409       .  A
C2359      C2360   1.401       .  A
C2359      N2366   1.437       .  S
C2360      C2361   1.401       .  A
C2360      H2365   1.084       .  S
C2361      C2362   1.412       .  A
C2362      N2363   1.433       .  S
N2363      H2367   1.046       .  S
N2363      H2368   1.046       .  S
N2366      H2369   1.046       .  S
N2366      H2370   1.046       .  S
C2371      C2372   1.403       .  A
C2371      C2376   1.397       .  A
C2371      H2378   1.082       .  S
C2372      C2373   1.408       .  A
C2373      C2374   1.396       .  A
C2373      N2380   1.433       .  S
C2374      C2375   1.403       .  A
C2374      H2379   1.084       .  S
C2375      C2376   1.408       .  A
C2376      N2377   1.433       .  S
N2377      H2381   1.046       .  S
N2377      H2382   1.046       .  S
N2380      H2383   1.046       .  S
N2380      H2384   1.046       .  S
C2385      C2386   1.421       .  A
C2385      C2390   1.406       .  A
C2385      H2392   1.083       .  S
C2386      C2387   1.408       .  A
C2387      C2388   1.406       .  A
C2387      N2394   1.432       .  S
C2388      C2389   1.420       .  A
C2388      H2393   1.083       .  S
C2389      C2390   1.406       .  A
C2390      N2391   1.432       .  S
N2391      H2395   1.046       .  S
N2391      H2396   1.045       .  S
N2394      H2397   1.045       .  S
N2394      H2398   1.046       .  S
C2399      C2400   1.403       .  A
C2399      C2404   1.400   1_545  A
C2399      H2406   1.084       .  S
C2400      C2401   1.409       .  A
C2401      C2402   1.395       .  A
C2401      N2408   1.434       .  S
C2402      C2403   1.403       .  A
C2402      H2407   1.083       .  S
C2403      C2404   1.418   1_545  A
C2404      N2405   1.432       .  S
N2405      H2409   1.045       .  S
N2405      H2410   1.045       .  S
N2408      H2411   1.046       .  S
N2408      H2412   1.046       .  S
C2413      C2414   1.401       .  A
C2413      C2418   1.398       .  A
C2413      H2420   1.084   1_554  S
C2414      C2415   1.410       .  A
C2415      C2416   1.399       .  A
C2415      N2422   1.438       .  S
C2416      C2417   1.402       .  A
C2416      H2421   1.084       .  S
C2417      C2418   1.409       .  A
C2418      N2419   1.433       .  S
N2419      H2423   1.046       .  S
N2419      H2424   1.046       .  S
N2422      H2425   1.046       .  S
N2422      H2426   1.045       .  S
C2427      C2428   1.421       .  A
C2427      C2432   1.413       .  A
C2427      H2434   1.082       .  S
C2428      C2429   1.412       .  A
C2429      C2430   1.414       .  A
C2429      N2436   1.430       .  S
C2430      C2431   1.415       .  A
C2430      H2435   1.084       .  S
C2431      C2432   1.404       .  A
C2432      N2433   1.438       .  S
N2433      H2437   1.045       .  S
N2433      H2438   1.046       .  S
N2436      H2439   1.046       .  S
N2436      H2440   1.045       .  S
C2441      C2442   1.403       .  A
C2441      C2446   1.404       .  A
C2441      H2448   1.084       .  S
C2442      C2443   1.414       .  A
C2443      C2444   1.391       .  A
C2443      N2450   1.430       .  S
C2444      C2445   1.399       .  A
C2444      H2449   1.084       .  S
C2445      C2446   1.413       .  A
C2446      N2447   1.438   1_554  S
N2447      H2451   1.046       .  S
N2447      H2452   1.045       .  S
N2450      H2453   1.046       .  S
N2450      H2454   1.042       .  S
C2455      C2456   1.420       .  A
C2455      C2460   1.411       .  A
C2455      H2462   1.083       .  S
C2456      C2457   1.406       .  A
C2457      C2458   1.402       .  A
C2457      N2464   1.432       .  S
C2458      C2459   1.421       .  A
C2458      H2463   1.083       .  S
C2459      C2460   1.409       .  A
C2460      N2461   1.431       .  S
N2461      H2465   1.045       .  S
N2461      H2466   1.045       .  S
N2464      H2467   1.046       .  S
N2464      H2468   1.045       .  S
C2469      C2470   1.417       .  A
C2469      C2474   1.406       .  A
C2469      H2476   1.083       .  S
C2470      C2471   1.410       .  A
C2471      C2472   1.407       .  A
C2471      N2478   1.432       .  S
C2472      C2473   1.419       .  A
C2472      H2477   1.083       .  S
C2473      C2474   1.410       .  A
C2474      N2475   1.431       .  S
N2475      H2479   1.046       .  S
N2475      H2480   1.045       .  S
N2478      H2481   1.044       .  S
N2478      H2482   1.047       .  S
C2483      C2484   1.401       .  A
C2483      C2488   1.398       .  A
C2483      H2490   1.084       .  S
C2484      C2485   1.410       .  A
C2485      C2486   1.398       .  A
C2485      N2492   1.433       .  S
C2486      C2487   1.403       .  A
C2486      H2491   1.084       .  S
C2487      C2488   1.420       .  A
C2488      N2489   1.432   1_545  S
N2489      H2493   1.044       .  S
N2489      H2494   1.046       .  S
N2492      H2495   1.046       .  S
N2492      H2496   1.046       .  S
C2497      C2498   1.403       .  A
C2497      C2502   1.396       .  A
C2497      H2504   1.084       .  S
C2498      C2499   1.406       .  A
C2499      C2500   1.397       .  A
C2499      N2506   1.433       .  S
C2500      C2501   1.404       .  A
C2500      H2505   1.083       .  S
C2501      C2502   1.416       .  A
C2502      N2503   1.432       .  S
N2503      H2507   1.045       .  S
N2503      H2508   1.046       .  S
N2506      H2509   1.046       .  S
N2506      H2510   1.046       .  S
C2511      C2512   1.399       .  A
C2511      C2516   1.394       .  A
C2511      H2518   1.085       .  S
C2512      C2513   1.408       .  A
C2513      C2514   1.401       .  A
C2513      N2520   1.432       .  S
C2514      C2515   1.405       .  A
C2514      H2519   1.083       .  S
C2515      C2516   1.407       .  A
C2516      N2517   1.429       .  S
N2517      H2521   1.046       .  S
N2517      H2522   1.046       .  S
N2520      H2523   1.045       .  S
N2520      H2524   1.046       .  S
C2525      C2526   1.421       .  A
C2525      C2530   1.415       .  A
C2525      H2532   1.083       .  S
C2526      C2527   1.407       .  A
C2527      C2528   1.417       .  A
C2527      N2534   1.437       .  S
C2528      C2529   1.421       .  A
C2528      H2533   1.083       .  S
C2529      C2530   1.405       .  A
C2530      N2531   1.437       .  S
N2531      H2535   1.045       .  S
N2531      H2536   1.046       .  S
N2534      H2537   1.046       .  S
N2534      H2538   1.045       .  S
C2539      C2540   1.402       .  A
C2539      C2544   1.388       .  A
C2539      H2546   1.084       .  S
C2540      C2541   1.410       .  A
C2541      C2542   1.407       .  A
C2541      N2548   1.437       .  S
C2542      C2543   1.407       .  A
C2542      H2547   1.083       .  S
C2543      C2544   1.418       .  A
C2544      N2545   1.433       .  S
N2545      H2549   1.044       .  S
N2545      H2550   1.046       .  S
N2548      H2551   1.046       .  S
N2548      H2552   1.046       .  S
C2553      C2554   1.422       .  A
C2553      C2558   1.415       .  A
C2553      H2560   1.082       .  S
C2554      C2555   1.407       .  A
C2555      C2556   1.419       .  A
C2555      N2562   1.436       .  S
C2556      C2557   1.421       .  A
C2556      H2561   1.083       .  S
C2557      C2558   1.405       .  A
C2558      N2559   1.437       .  S
N2559      H2563   1.046       .  S
N2559      H2564   1.046       .  S
N2562      H2565   1.046       .  S
N2562      H2566   1.045       .  S
C2567      C2568   1.396       .  A
C2567      C2572   1.390       .  A
C2567      H2574   1.084       .  S
C2568      C2569   1.413       .  A
C2569      C2570   1.402       .  A
C2569      N2576   1.438       .  S
C2570      C2571   1.403       .  A
C2570      H2575   1.083       .  S
C2571      C2572   1.404       .  A
C2572      N2573   1.427       .  S
N2573      H2577   1.046       .  S
N2573      H2578   1.046       .  S
N2576      H2579   1.045       .  S
N2576      H2580   1.046       .  S
C2581      C2582   1.403       .  A
C2581      C2586   1.401       .  A
C2581      H2588   1.083       .  S
C2582      C2583   1.412       .  A
C2583      C2584   1.386       .  A
C2583      N2590   1.427       .  S
C2584      C2585   1.396       .  A
C2584      H2589   1.085       .  S
C2585      C2586   1.411       .  A
C2586      N2587   1.438       .  S
N2587      H2591   1.046       .  S
N2587      H2592   1.046       .  S
N2590      H2593   1.045       .  S
N2590      H2594   1.044       .  S
C2595      C2596   1.416       .  A
C2595      C2600   1.402       .  A
C2595      H2602   1.083       .  S
C2596      C2597   1.408       .  A
C2597      C2598   1.405       .  A
C2597      N2604   1.432       .  S
C2598      C2599   1.420       .  A
C2598      H2603   1.083       .  S
C2599      C2600   1.409       .  A
C2600      N2601   1.431       .  S
N2601      H2605   1.044       .  S
N2601      H2606   1.046       .  S
N2604      H2607   1.046       .  S
N2604      H2608   1.045       .  S
C2609      C2610   1.404       .  A
C2609      C2614   1.400       .  A
C2609      H2616   1.084       .  S
C2610      C2611   1.406       .  A
C2611      C2612   1.391       .  A
C2611      N2618   1.429       .  S
C2612      C2613   1.398       .  A
C2612      H2617   1.084       .  S
C2613      C2614   1.409       .  A
C2614      N2615   1.432       .  S
N2615      H2619   1.046       .  S
N2615      H2620   1.046       .  S
N2618      H2621   1.046       .  S
N2618      H2622   1.045       .  S
C2623      C2624   1.421       .  A
C2623      C2628   1.416       .  A
C2623      H2630   1.083       .  S
C2624      C2625   1.405       .  A
C2625      C2626   1.414       .  A
C2625      N2632   1.437       .  S
C2626      C2627   1.421       .  A
C2626      H2631   1.083       .  S
C2627      C2628   1.405       .  A
C2628      N2629   1.437       .  S
N2629      H2633   1.045       .  S
N2629      H2634   1.046       .  S
N2632      H2635   1.046       .  S
N2632      H2636   1.045       .  S
C2637      C2638   1.421       .  A
C2637      C2642   1.407       .  A
C2637      H2644   1.083       .  S
C2638      C2639   1.408       .  A
C2639      C2640   1.405       .  A
C2639      N2646   1.431       .  S
C2640      C2641   1.419       .  A
C2640      H2645   1.083       .  S
C2641      C2642   1.408       .  A
C2642      N2643   1.432       .  S
N2643      H2647   1.045       .  S
N2643      H2648   1.045       .  S
N2646      H2649   1.045       .  S
N2646      H2650   1.046       .  S
C2651      C2652   1.404       .  A
C2651      C2656   1.401       .  A
C2651      H2658   1.084       .  S
C2652      C2653   1.408       .  A
C2653      C2654   1.396       .  A
C2653      N2660   1.432       .  S
C2654      C2655   1.400       .  A
C2654      H2659   1.084       .  S
C2655      C2656   1.410       .  A
C2656      N2657   1.433       .  S
N2657      H2661   1.046       .  S
N2657      H2662   1.045       .  S
N2660      H2663   1.045       .  S
N2660      H2664   1.046       .  S
C2665      C2666   1.404       .  A
C2665      C2670   1.396       .  A
C2665      H2672   1.084       .  S
C2666      C2667   1.407       .  A
C2667      C2668   1.395       .  A
C2667      N2674   1.433       .  S
C2668      C2669   1.405       .  A
C2668      H2673   1.084       .  S
C2669      C2670   1.416       .  A
C2670      N2671   1.432       .  S
N2671      H2675   1.044       .  S
N2671      H2676   1.046       .  S
N2674      H2677   1.046       .  S
N2674      H2678   1.046       .  S
C2679      C2680   1.404       .  A
C2679      C2684   1.400       .  A
C2679      H2686   1.084       .  S
C2680      C2681   1.408       .  A
C2681      C2682   1.396       .  A
C2681      N2688   1.438       .  S
C2682      C2683   1.402       .  A
C2682      H2687   1.084       .  S
C2683      C2684   1.409       .  A
C2684      N2685   1.433       .  S
N2685      H2689   1.046       .  S
N2685      H2690   1.046       .  S
N2688      H2691   1.046       .  S
N2688      H2692   1.045       .  S
C2693      C2694   1.400       .  A
C2693      C2698   1.396       .  A
C2693      H2700   1.083       .  S
C2694      C2695   1.414       .  A
C2695      C2696   1.401       .  A
C2695      N2702   1.438       .  S
C2696      C2697   1.401       .  A
C2696      H2701   1.084       .  S
C2697      C2698   1.410       .  A
C2698      N2699   1.438       .  S
N2699      H2703   1.046       .  S
N2699      H2704   1.046       .  S
N2702      H2705   1.045       .  S
N2702      H2706   1.046       .  S
C2707      C2708   1.405       .  A
C2707      C2712   1.408       .  A
C2707      H2714   1.083       .  S
C2708      C2709   1.404       .  A
C2709      C2710   1.388       .  A
C2709      N2716   1.428       .  S
C2710      C2711   1.397       .  A
C2710      H2715   1.085       .  S
C2711      C2712   1.412       .  A
C2712      N2713   1.437       .  S
N2713      H2717   1.046       .  S
N2713      H2718   1.046       .  S
N2716      H2719   1.046       .  S
N2716      H2720   1.046       .  S
C2721      C2722   1.420       .  A
C2721      C2726   1.406       .  A
C2721      H2728   1.083       .  S
C2722      C2723   1.408       .  A
C2723      C2724   1.405       .  A
C2723      N2730   1.431       .  S
C2724      C2725   1.418       .  A
C2724      H2729   1.083       .  S
C2725      C2726   1.408       .  A
C2726      N2727   1.432       .  S
N2727      H2731   1.044       .  S
N2727      H2732   1.047       .  S
N2730      H2733   1.045       .  S
N2730      H2734   1.045       .  S
C2735      C2736   1.422       .  A
C2735      C2740   1.414       .  A
C2735      H2742   1.083       .  S
C2736      C2737   1.404       .  A
C2737      C2738   1.414       .  A
C2737      N2744   1.436       .  S
C2738      C2739   1.419       .  A
C2738      H2743   1.083       .  S
C2739      C2740   1.404       .  A
C2740      N2741   1.437       .  S
N2741      H2745   1.046       .  S
N2741      H2746   1.046       .  S
N2744      H2747   1.045       .  S
N2744      H2748   1.046       .  S
C2749      C2750   1.402       .  A
C2749      C2754   1.398   1_554  A
C2749      H2756   1.084       .  S
C2750      C2751   1.408       .  A
C2751      C2752   1.398       .  A
C2751      N2758   1.438       .  S
C2752      C2753   1.401       .  A
C2752      H2757   1.083       .  S
C2753      C2754   1.409   1_554  A
C2754      N2755   1.433       .  S
N2755      H2759   1.046       .  S
N2755      H2760   1.046       .  S
N2758      H2761   1.046       .  S
N2758      H2762   1.045       .  S
C2763      C2764   1.402       .  A
C2763      C2768   1.395       .  A
C2763      H2770   1.084       .  S
C2764      C2765   1.413       .  A
C2765      C2766   1.401   1_455  A
C2765      N2772   1.438       .  S
C2766      C2767   1.402       .  A
C2766      H2771   1.084       .  S
C2767      C2768   1.406   1_655  A
C2768      N2769   1.432       .  S
N2769      H2773   1.046       .  S
N2769      H2774   1.046       .  S
N2772      H2775   1.046       .  S
N2772      H2776   1.046   1_455  S
C2777      C2778   1.423       .  A
C2777      C2782   1.415       .  A
C2777      H2784   1.083       .  S
C2778      C2779   1.406       .  A
C2779      C2780   1.416       .  A
C2779      N2786   1.437       .  S
C2780      C2781   1.420       .  A
C2780      H2785   1.083       .  S
C2781      C2782   1.403       .  A
C2782      N2783   1.437       .  S
N2783      H2787   1.045       .  S
N2783      H2788   1.045       .  S
N2786      H2789   1.045       .  S
N2786      H2790   1.046       .  S
C2791      C2792   1.406       .  A
C2791      C2796   1.398       .  A
C2791      H2798   1.084       .  S
C2792      C2793   1.415       .  A
C2793      C2794   1.394       .  A
C2793      N2800   1.432       .  S
C2794      C2795   1.403       .  A
C2794      H2799   1.084       .  S
C2795      C2796   1.405       .  A
C2796      N2797   1.433       .  S
N2797      H2801   1.046       .  S
N2797      H2802   1.046       .  S
N2800      H2803   1.045       .  S
N2800      H2804   1.045       .  S
C2805      C2806   1.413       .  A
C2805      C2810   1.413       .  A
C2805      H2812   1.084       .  S
C2806      C2807   1.400       .  A
C2807      C2808   1.406       .  A
C2807      N2814   1.432       .  S
C2808      C2809   1.415       .  A
C2808      H2813   1.084       .  S
C2809      C2810   1.406       .  A
C2810      N2811   1.437       .  S
N2811      H2815   1.045       .  S
N2811      H2816   1.045       .  S
N2814      H2817   1.044       .  S
N2814      H2818   1.046       .  S
C2819      C2820   1.402   1_455  A
C2819      C2824   1.395       .  A
C2819      H2826   1.084       .  S
C2820      C2821   1.410       .  A
C2821      C2822   1.403   1_655  A
C2821      N2828   1.432       .  S
C2822      C2823   1.405       .  A
C2822      H2827   1.083       .  S
C2823      C2824   1.409       .  A
C2824      N2825   1.433       .  S
N2825      H2829   1.046       .  S
N2825      H2830   1.046       .  S
N2828      H2831   1.045       .  S
N2828      H2832   1.046       .  S
C2833      C2834   1.419       .  A
C2833      C2838   1.412       .  A
C2833      H2840   1.083       .  S
C2834      C2835   1.406       .  A
C2835      C2836   1.414       .  A
C2835      N2842   1.437       .  S
C2836      C2837   1.419       .  A
C2836      H2841   1.083       .  S
C2837      C2838   1.405       .  A
C2838      N2839   1.437       .  S
N2839      H2843   1.046       .  S
N2839      H2844   1.045       .  S
N2842      H2845   1.045       .  S
N2842      H2846   1.046       .  S
C2847      C2848   1.405       .  A
C2847      C2852   1.407       .  A
C2847      H2854   1.083       .  S
C2848      C2849   1.409       .  A
C2849      C2850   1.393       .  A
C2849      N2856   1.433       .  S
C2850      C2851   1.401       .  A
C2850      H2855   1.083       .  S
C2851      C2852   1.413       .  A
C2852      N2853   1.437       .  S
N2853      H2857   1.046       .  S
N2853      H2858   1.046       .  S
N2856      H2859   1.046       .  S
N2856      H2860   1.046       .  S
C2861      C2862   1.420       .  A
C2861      C2866   1.413       .  A
C2861      H2868   1.083       .  S
C2862      C2863   1.400       .  A
C2863      C2864   1.408       .  A
C2863      N2870   1.432       .  S
C2864      C2865   1.421       .  A
C2864      H2869   1.083       .  S
C2865      C2866   1.405       .  A
C2866      N2867   1.437       .  S
N2867      H2871   1.046       .  S
N2867      H2872   1.045       .  S
N2870      H2873   1.046       .  S
N2870      H2874   1.045       .  S
C2875      C2876   1.402       .  A
C2875      C2880   1.395       .  A
C2875      H2882   1.084       .  S
C2876      C2877   1.412       .  A
C2877      C2878   1.402       .  A
C2877      N2884   1.438   1_554  S
C2878      C2879   1.403       .  A
C2878      H2883   1.084       .  S
C2879      C2880   1.405       .  A
C2880      N2881   1.433       .  S
N2881      H2885   1.046       .  S
N2881      H2886   1.046       .  S
N2884      H2887   1.046       .  S
N2884      H2888   1.046       .  S
C2889      C2890   1.405       .  A
C2889      C2894   1.396       .  A
C2889      H2896   1.083       .  S
C2890      C2891   1.403       .  A
C2891      C2892   1.386       .  A
C2891      N2898   1.426       .  S
C2892      C2893   1.396       .  A
C2892      H2897   1.084       .  S
C2893      C2894   1.413       .  A
C2894      N2895   1.432       .  S
N2895      H2899   1.044       .  S
N2895      H2900   1.045       .  S
N2898      H2901   1.045       .  S
N2898      H2902   1.046       .  S
C2903      C2904   1.398   1_545  A
C2903      C2908   1.390       .  A
C2903      H2910   1.085       .  S
C2904      C2905   1.414       .  A
C2905      C2906   1.395   1_565  A
C2905      N2912   1.432       .  S
C2906      C2907   1.403       .  A
C2906      H2911   1.084       .  S
C2907      C2908   1.403       .  A
C2908      N2909   1.426       .  S
N2909      H2913   1.046       .  S
N2909      H2914   1.045       .  S
N2912      H2915   1.046       .  S
N2912      H2916   1.044       .  S
C2917      C2918   1.400       .  A
C2917      C2922   1.398       .  A
C2917      H2924   1.084       .  S
C2918      C2919   1.410       .  A
C2919      C2920   1.389       .  A
C2919      N2926   1.429       .  S
C2920      C2921   1.398       .  A
C2920      H2925   1.085       .  S
C2921      C2922   1.412       .  A
C2922      N2923   1.438       .  S
N2923      H2927   1.045       .  S
N2923      H2928   1.046       .  S
N2926      H2929   1.045       .  S
N2926      H2930   1.041       .  S
C2931      C2932   1.399   1_455  A
C2931      C2936   1.392       .  A
C2931      H2938   1.084       .  S
C2932      C2933   1.412       .  A
C2933      C2934   1.408   1_655  A
C2933      N2940   1.437       .  S
C2934      C2935   1.406       .  A
C2934      H2939   1.083       .  S
C2935      C2936   1.409       .  A
C2936      N2937   1.429       .  S
N2937      H2941   1.046       .  S
N2937      H2942   1.046       .  S
N2940      H2943   1.045       .  S
N2940      H2944   1.047       .  S
C2945      C2946   1.403       .  A
C2945      C2950   1.397       .  A
C2945      H2952   1.084       .  S
C2946      C2947   1.420       .  A
C2947      C2948   1.398       .  A
C2947      N2954   1.432       .  S
C2948      C2949   1.402       .  A
C2948      H2953   1.084       .  S
C2949      C2950   1.410       .  A
C2950      N2951   1.433       .  S
N2951      H2955   1.046       .  S
N2951      H2956   1.046       .  S
N2954      H2957   1.045       .  S
N2954      H2958   1.045       .  S
C2959      C2960   1.400       .  A
C2959      C2964   1.396       .  A
C2959      H2966   1.084       .  S
C2960      C2961   1.411       .  A
C2961      C2962   1.401       .  A
C2961      N2968   1.432       .  S
C2962      C2963   1.402       .  A
C2962      H2967   1.084       .  S
C2963      C2964   1.406       .  A
C2964      N2965   1.430       .  S
N2965      H2969   1.045       .  S
N2965      H2970   1.046       .  S
N2968      H2971   1.046       .  S
N2968      H2972   1.045       .  S
C2973      C2974   1.403       .  A
C2973      C2978   1.401       .  A
C2973      H2980   1.084       .  S
C2974      C2975   1.411       .  A
C2975      C2976   1.400       .  A
C2975      N2982   1.438       .  S
C2976      C2977   1.401       .  A
C2976      H2981   1.084       .  S
C2977      C2978   1.411       .  A
C2978      N2979   1.433       .  S
N2979      H2983   1.046       .  S
N2979      H2984   1.046       .  S
N2982      H2985   1.046       .  S
N2982      H2986   1.045       .  S
C2987      C2988   1.399       .  A
C2987      C2992   1.391       .  A
C2987      H2994   1.085       .  S
C2988      C2989   1.411       .  A
C2989      C2990   1.405       .  A
C2989      N2996   1.437       .  S
C2990      C2991   1.405       .  A
C2990      H2995   1.083       .  S
C2991      C2992   1.405       .  A
C2992      N2993   1.429       .  S
N2993      H2997   1.045       .  S
N2993      H2998   1.046       .  S
N2996      H2999   1.046       .  S
N2996      H3000   1.045       .  S
C3001      C3002   1.402       .  A
C3001      C3006   1.396       .  A
C3001      H3008   1.083       .  S
C3002      C3003   1.408       .  A
C3003      C3004   1.392       .  A
C3003      N3010   1.433       .  S
C3004      C3005   1.401       .  A
C3004      H3009   1.084       .  S
C3005      C3006   1.418       .  A
C3006      N3007   1.432       .  S
N3007      H3011   1.045       .  S
N3007      H3012   1.045       .  S
N3010      H3013   1.046       .  S
N3010      H3014   1.046       .  S
C3015      C3016   1.402       .  A
C3015      C3020   1.395       .  A
C3015      H3022   1.084   1_554  S
C3016      C3017   1.408       .  A
C3017      C3018   1.399       .  A
C3017      N3024   1.438       .  S
C3018      C3019   1.402       .  A
C3018      H3023   1.083       .  S
C3019      C3020   1.408       .  A
C3020      N3021   1.433       .  S
N3021      H3025   1.045   1_554  S
N3021      H3026   1.046       .  S
N3024      H3027   1.046       .  S
N3024      H3028   1.045       .  S
C3029      C3030   1.398       .  A
C3029      C3034   1.393       .  A
C3029      H3036   1.084       .  S
C3030      C3031   1.409       .  A
C3031      C3032   1.400   1_545  A
C3031      N3038   1.433       .  S
C3032      C3033   1.403       .  A
C3032      H3037   1.084       .  S
C3033      C3034   1.405   1_565  A
C3034      N3035   1.430       .  S
N3035      H3039   1.045       .  S
N3035      H3040   1.046       .  S
N3038      H3041   1.046       .  S
N3038      H3042   1.046       .  S
C3043      C3044   1.399       .  A
C3043      C3048   1.406       .  A
C3043      H3050   1.084       .  S
C3044      C3045   1.416       .  A
C3045      C3046   1.411       .  A
C3045      N3052   1.432       .  S
C3046      C3047   1.400       .  A
C3046      H3051   1.084       .  S
C3047      C3048   1.426       .  A
C3048      N3049   1.433       .  S
N3049      H3053   1.046       .  S
N3049      H3054   1.043       .  S
N3052      H3055   1.046       .  S
N3052      H3056   1.045       .  S
C3057      C3058   1.413       .  A
C3057      C3062   1.412       .  A
C3057      H3064   1.084       .  S
C3058      C3059   1.409       .  A
C3059      C3060   1.404       .  A
C3059      N3066   1.433       .  S
C3060      C3061   1.412       .  A
C3060      H3065   1.084       .  S
C3061      C3062   1.404       .  A
C3062      N3063   1.431       .  S
N3063      H3067   1.045       .  S
N3063      H3068   1.045       .  S
N3066      H3069   1.045       .  S
N3066      H3070   1.046       .  S
C3071      C3072   1.403       .  A
C3071      C3076   1.395       .  A
C3071      H3078   1.084       .  S
C3072      C3073   1.412       .  A
C3073      C3074   1.403       .  A
C3073      N3080   1.436       .  S
C3074      C3075   1.403       .  A
C3074      H3079   1.083       .  S
C3075      C3076   1.407       .  A
C3076      N3077   1.432       .  S
N3077      H3081   1.046       .  S
N3077      H3082   1.046       .  S
N3080      H3083   1.045       .  S
N3080      H3084   1.046       .  S
C3085      C3086   1.397       .  A
C3085      C3090   1.386       .  A
C3085      H3092   1.083       .  S
C3086      C3087   1.409       .  A
C3087      C3088   1.404       .  A
C3087      N3094   1.432       .  S
C3088      C3089   1.406       .  A
C3088      H3093   1.083       .  S
C3089      C3090   1.414       .  A
C3090      N3091   1.428       .  S
N3091      H3095   1.044       .  S
N3091      H3096   1.044       .  S
N3094      H3097   1.046       .  S
N3094      H3098   1.046       .  S
C3099      C3100   1.402   1_455  A
C3099      C3104   1.395       .  A
C3099      H3106   1.084       .  S
C3100      C3101   1.414       .  A
C3101      C3102   1.401   1_655  A
C3101      N3108   1.438       .  S
C3102      C3103   1.401       .  A
C3102      H3107   1.083       .  S
C3103      C3104   1.408       .  A
C3104      N3105   1.434       .  S
N3105      H3109   1.046       .  S
N3105      H3110   1.046       .  S
N3108      H3111   1.045       .  S
N3108      H3112   1.046       .  S
C3113      C3114   1.399       .  A
C3113      C3118   1.393       .  A
C3113      H3120   1.084       .  S
C3114      C3115   1.406       .  A
C3115      C3116   1.398       .  A
C3115      N3122   1.436       .  S
C3116      C3117   1.400       .  A
C3116      H3121   1.084       .  S
C3117      C3118   1.408       .  A
C3118      N3119   1.433       .  S
N3119      H3123   1.046       .  S
N3119      H3124   1.046       .  S
N3122      H3125   1.046       .  S
N3122      H3126   1.045       .  S
C3127      C3128   1.401       .  A
C3127      C3132   1.398       .  A
C3127      H3134   1.084       .  S
C3128      C3129   1.411       .  A
C3129      C3130   1.400       .  A
C3129      N3136   1.438       .  S
C3130      C3131   1.402       .  A
C3130      H3135   1.084       .  S
C3131      C3132   1.410       .  A
C3132      N3133   1.433   1_554  S
N3133      H3137   1.046       .  S
N3133      H3138   1.046   1_556  S
N3136      H3139   1.045       .  S
N3136      H3140   1.046       .  S
C3141      C3142   1.399       .  A
C3141      C3146   1.393       .  A
C3141      H3148   1.084       .  S
C3142      C3143   1.409       .  A
C3143      C3144   1.401       .  A
C3143      N3150   1.432       .  S
C3144      C3145   1.405       .  A
C3144      H3149   1.084       .  S
C3145      C3146   1.407       .  A
C3146      N3147   1.430       .  S
N3147      H3151   1.046       .  S
N3147      H3152   1.046       .  S
N3150      H3153   1.046       .  S
N3150      H3154   1.046       .  S
C3155      C3156   1.403       .  A
C3155      C3160   1.405   1_455  A
C3155      H3162   1.083       .  S
C3156      C3157   1.407       .  A
C3157      C3158   1.392       .  A
C3157      N3164   1.431       .  S
C3158      C3159   1.399   1_455  A
C3158      H3163   1.084       .  S
C3159      C3160   1.413       .  A
C3160      N3161   1.437       .  S
N3161      H3165   1.046       .  S
N3161      H3166   1.045       .  S
N3164      H3167   1.046       .  S
N3164      H3168   1.045       .  S
C3169      C3170   1.419       .  A
C3169      C3174   1.407       .  A
C3169      H3176   1.083       .  S
C3170      C3171   1.405       .  A
C3171      C3172   1.418       .  A
C3171      N3178   1.437       .  S
C3172      C3173   1.425       .  A
C3172      H3177   1.083       .  S
C3173      C3174   1.409       .  A
C3174      N3175   1.431       .  S
N3175      H3179   1.045       .  S
N3175      H3180   1.045       .  S
N3178      H3181   1.046       .  S
N3178      H3182   1.045       .  S
C3183      C3184   1.419       .  A
C3183      C3188   1.411       .  A
C3183      H3190   1.084       .  S
C3184      C3185   1.405       .  A
C3185      C3186   1.404       .  A
C3185      N3192   1.432       .  S
C3186      C3187   1.420       .  A
C3186      H3191   1.082       .  S
C3187      C3188   1.409       .  A
C3188      N3189   1.431       .  S
N3189      H3193   1.045       .  S
N3189      H3194   1.045       .  S
N3192      H3195   1.045       .  S
N3192      H3196   1.045       .  S
C3197      C3198   1.403       .  A
C3197      C3202   1.402       .  A
C3197      H3204   1.083       .  S
C3198      C3199   1.407       .  A
C3199      C3200   1.394       .  A
C3199      N3206   1.433       .  S
C3200      C3201   1.402       .  A
C3200      H3205   1.083       .  S
C3201      C3202   1.412       .  A
C3202      N3203   1.437       .  S
N3203      H3207   1.046       .  S
N3203      H3208   1.046       .  S
N3206      H3209   1.046       .  S
N3206      H3210   1.046       .  S
C3211      C3212   1.406       .  A
C3211      C3216   1.397       .  A
C3211      H3218   1.084       .  S
C3212      C3213   1.416       .  A
C3213      C3214   1.396       .  A
C3213      N3220   1.432       .  S
C3214      C3215   1.403       .  A
C3214      H3219   1.082       .  S
C3215      C3216   1.407       .  A
C3216      N3217   1.433       .  S
N3217      H3221   1.046       .  S
N3217      H3222   1.046       .  S
N3220      H3223   1.045       .  S
N3220      H3224   1.044       .  S
C3225      C3226   1.402       .  A
C3225      C3230   1.394       .  A
C3225      H3232   1.084       .  S
C3226      C3227   1.418       .  A
C3227      C3228   1.398       .  A
C3227      N3234   1.432       .  S
C3228      C3229   1.402       .  A
C3228      H3233   1.084       .  S
C3229      C3230   1.408       .  A
C3230      N3231   1.433       .  S
N3231      H3235   1.046       .  S
N3231      H3236   1.046       .  S
N3234      H3237   1.044       .  S
N3234      H3238   1.045       .  S
C3239      C3240   1.405       .  A
C3239      C3244   1.401   1_565  A
C3239      H3246   1.084       .  S
C3240      C3241   1.406   1_565  A
C3241      C3242   1.394       .  A
C3241      N3248   1.430       .  S
C3242      C3243   1.400       .  A
C3242      H3247   1.084       .  S
C3243      C3244   1.409       .  A
C3244      N3245   1.432       .  S
N3245      H3249   1.046   1_545  S
N3245      H3250   1.046       .  S
N3248      H3251   1.046       .  S
N3248      H3252   1.046       .  S
C3253      C3254   1.421       .  A
C3253      C3258   1.414       .  A
C3253      H3260   1.083       .  S
C3254      C3255   1.407       .  A
C3255      C3256   1.413       .  A
C3255      N3262   1.437       .  S
C3256      C3257   1.419       .  A
C3256      H3261   1.083       .  S
C3257      C3258   1.402       .  A
C3258      N3259   1.431       .  S
N3259      H3263   1.046       .  S
N3259      H3264   1.045       .  S
N3262      H3265   1.046       .  S
N3262      H3266   1.045       .  S
C3267      C3268   1.396       .  A
C3267      C3272   1.411       .  A
C3267      H3274   1.084       .  S
C3268      C3269   1.429       .  A
C3269      C3270   1.413       .  A
C3269      N3276   1.433       .  S
C3270      C3271   1.398       .  A
C3270      H3275   1.084       .  S
C3271      C3272   1.429       .  A
C3272      N3273   1.433       .  S
N3273      H3277   1.046       .  S
N3273      H3278   1.046       .  S
N3276      H3279   1.046       .  S
N3276      H3280   1.046       .  S
C3281      C3282   1.401       .  A
C3281      C3286   1.400       .  A
C3281      H3288   1.084       .  S
C3282      C3283   1.404       .  A
C3283      C3284   1.391       .  A
C3283      N3290   1.426       .  S
C3284      C3285   1.397       .  A
C3284      H3289   1.084       .  S
C3285      C3286   1.410       .  A
C3286      N3287   1.431       .  S
N3287      H3291   1.046       .  S
N3287      H3292   1.044       .  S
N3290      H3293   1.045       .  S
N3290      H3294   1.046       .  S
C3295      C3296   1.395       .  A
C3295      C3300   1.384       .  A
C3295      H3302   1.085       .  S
C3296      C3297   1.412       .  A
C3297      C3298   1.408       .  A
C3297      N3304   1.437       .  S
C3298      C3299   1.406       .  A
C3298      H3303   1.083       .  S
C3299      C3300   1.406       .  A
C3300      N3301   1.427       .  S
N3301      H3305   1.045       .  S
N3301      H3306   1.046       .  S
N3304      H3307   1.046       .  S
N3304      H3308   1.046       .  S
C3309      C3310   1.404       .  A
C3309      C3314   1.399   1_655  A
C3309      H3316   1.083       .  S
C3310      C3311   1.412   1_655  A
C3311      C3312   1.393       .  A
C3311      N3318   1.431       .  S
C3312      C3313   1.401       .  A
C3312      H3317   1.085       .  S
C3313      C3314   1.409       .  A
C3314      N3315   1.438       .  S
N3315      H3319   1.045   1_455  S
N3315      H3320   1.046       .  S
N3318      H3321   1.045   1_455  S
N3318      H3322   1.043       .  S
C3323      C3324   1.403       .  A
C3323      C3328   1.395       .  A
C3323      H3330   1.084       .  S
C3324      C3325   1.412       .  A
C3325      C3326   1.398       .  A
C3325      N3332   1.438       .  S
C3326      C3327   1.404       .  A
C3326      H3331   1.083   1_545  S
C3327      C3328   1.413       .  A
C3328      N3329   1.433       .  S
N3329      H3333   1.043       .  S
N3329      H3334   1.046       .  S
N3332      H3335   1.045       .  S
N3332      H3336   1.046       .  S
C3337      C3338   1.421       .  A
C3337      C3342   1.418       .  A
C3337      H3344   1.083       .  S
C3338      C3339   1.403       .  A
C3339      C3340   1.413       .  A
C3339      N3346   1.431       .  S
C3340      C3341   1.422       .  A
C3340      H3345   1.083       .  S
C3341      C3342   1.408       .  A
C3342      N3343   1.437       .  S
N3343      H3347   1.046       .  S
N3343      H3348   1.046       .  S
N3346      H3349   1.045       .  S
N3346      H3350   1.046       .  S
C3351      C3352   1.419       .  A
C3351      C3356   1.411       .  A
C3351      H3358   1.083       .  S
C3352      C3353   1.403       .  A
C3353      C3354   1.410       .  A
C3353      N3360   1.437       .  S
C3354      C3355   1.420       .  A
C3354      H3359   1.083       .  S
C3355      C3356   1.404       .  A
C3356      N3357   1.437       .  S
N3357      H3361   1.046       .  S
N3357      H3362   1.045       .  S
N3360      H3363   1.045       .  S
N3360      H3364   1.046       .  S
C3365      C3366   1.420       .  A
C3365      C3370   1.413   1_655  A
C3365      H3372   1.083       .  S
C3366      C3367   1.404       .  A
C3367      C3368   1.414   1_655  A
C3367      N3374   1.438       .  S
C3368      C3369   1.423       .  A
C3368      H3373   1.082       .  S
C3369      C3370   1.404       .  A
C3370      N3371   1.436       .  S
N3371      H3375   1.045       .  S
N3371      H3376   1.046       .  S
N3374      H3377   1.045       .  S
N3374      H3378   1.046       .  S
C3379      C3380   1.421       .  A
C3379      C3384   1.407   1_565  A
C3379      H3386   1.083       .  S
C3380      C3381   1.408       .  A
C3381      C3382   1.407   1_565  A
C3381      N3388   1.431       .  S
C3382      C3383   1.420       .  A
C3382      H3387   1.083       .  S
C3383      C3384   1.407       .  A
C3384      N3385   1.432       .  S
N3385      H3389   1.046       .  S
N3385      H3390   1.045       .  S
N3388      H3391   1.046       .  S
N3388      H3392   1.045       .  S
C3393      C3394   1.396       .  A
C3393      C3398   1.411       .  A
C3393      H3400   1.084       .  S
C3394      C3395   1.419       .  A
C3395      C3396   1.416       .  A
C3395      N3402   1.432       .  S
C3396      C3397   1.401       .  A
C3396      H3401   1.083       .  S
C3397      C3398   1.426       .  A
C3398      N3399   1.433       .  S
N3399      H3403   1.045       .  S
N3399      H3404   1.046       .  S
N3402      H3405   1.046       .  S
N3402      H3406   1.046       .  S
C3407      C3408   1.401       .  A
C3407      C3412   1.416       .  A
C3407      H3414   1.083       .  S
C3408      C3409   1.424       .  A
C3409      C3410   1.409       .  A
C3409      N3416   1.432       .  S
C3410      C3411   1.396       .  A
C3410      H3415   1.084       .  S
C3411      C3412   1.421       .  A
C3412      N3413   1.437       .  S
N3413      H3417   1.046       .  S
N3413      H3418   1.045       .  S
N3416      H3419   1.046       .  S
N3416      H3420   1.045       .  S
C3421      C3422   1.421       .  A
C3421      C3426   1.409   1_655  A
C3421      H3428   1.083       .  S
C3422      C3423   1.410       .  A
C3423      C3424   1.412   1_655  A
C3423      N3430   1.432       .  S
C3424      C3425   1.423       .  A
C3424      H3429   1.083       .  S
C3425      C3426   1.409       .  A
C3426      N3427   1.431       .  S
N3427      H3431   1.045       .  S
N3427      H3432   1.045       .  S
N3430      H3433   1.047       .  S
N3430      H3434   1.044       .  S
C3435      C3436   1.423       .  A
C3435      C3440   1.409       .  A
C3435      H3442   1.083       .  S
C3436      C3437   1.403       .  A
C3437      C3438   1.413       .  A
C3437      N3444   1.437       .  S
C3438      C3439   1.420       .  A
C3438      H3443   1.083       .  S
C3439      C3440   1.400       .  A
C3440      N3441   1.437       .  S
N3441      H3445   1.045       .  S
N3441      H3446   1.046       .  S
N3444      H3447   1.045       .  S
N3444      H3448   1.046       .  S
C3449      C3450   1.405       .  A
C3449      C3454   1.404   1_545  A
C3449      H3456   1.083       .  S
C3450      C3451   1.416   1_545  A
C3451      C3452   1.392       .  A
C3451      N3458   1.433       .  S
C3452      C3453   1.400       .  A
C3452      H3457   1.083       .  S
C3453      C3454   1.412       .  A
C3454      N3455   1.438       .  S
N3455      H3459   1.046   1_565  S
N3455      H3460   1.046       .  S
N3458      H3461   1.045   1_565  S
N3458      H3462   1.043       .  S
C3463      C3464   1.418       .  A
C3463      C3468   1.417       .  A
C3463      H3470   1.084       .  S
C3464      C3465   1.404       .  A
C3465      C3466   1.414       .  A
C3465      N3472   1.437       .  S
C3466      C3467   1.419       .  A
C3466      H3471   1.083       .  S
C3467      C3468   1.408       .  A
C3468      N3469   1.437       .  S
N3469      H3473   1.046       .  S
N3469      H3474   1.045       .  S
N3472      H3475   1.045       .  S
N3472      H3476   1.046       .  S
C3477      C3478   1.400       .  A
C3477      C3482   1.416       .  A
C3477      H3484   1.083       .  S
C3478      C3479   1.432       .  A
C3479      C3480   1.411       .  A
C3479      N3486   1.433       .  S
C3480      C3481   1.395       .  A
C3480      H3485   1.084       .  S
C3481      C3482   1.425       .  A
C3482      N3483   1.432       .  S
N3483      H3487   1.046       .  S
N3483      H3488   1.046       .  S
N3486      H3489   1.046       .  S
N3486      H3490   1.045       .  S
C3491      C3492   1.419       .  A
C3491      C3496   1.411   1_565  A
C3491      H3498   1.084       .  S
C3492      C3493   1.404       .  A
C3493      C3494   1.405   1_565  A
C3493      N3500   1.432       .  S
C3494      C3495   1.422       .  A
C3494      H3499   1.083       .  S
C3495      C3496   1.409       .  A
C3496      N3497   1.431       .  S
N3497      H3501   1.045       .  S
N3497      H3502   1.045       .  S
N3500      H3503   1.045       .  S
N3500      H3504   1.046       .  S
C3505      C3506   1.404       .  A
C3505      C3510   1.404   1_465  A
C3505      H3512   1.083       .  S
C3506      C3507   1.408   1_455  A
C3507      C3508   1.392       .  A
C3507      N3514   1.434       .  S
C3508      C3509   1.401   1_565  A
C3508      H3513   1.083       .  S
C3509      C3510   1.412       .  A
C3510      N3511   1.437       .  S
N3511      H3515   1.046   1_655  S
N3511      H3516   1.046       .  S
N3514      H3517   1.046       .  S
N3514      H3518   1.046       .  S
C3519      C3520   1.421       .  A
C3519      C3524   1.403       .  A
C3519      H3526   1.083       .  S
C3520      C3521   1.408       .  A
C3521      C3522   1.408       .  A
C3521      N3528   1.431       .  S
C3522      C3523   1.420       .  A
C3522      H3527   1.083       .  S
C3523      C3524   1.407       .  A
C3524      N3525   1.432       .  S
N3525      H3529   1.045       .  S
N3525      H3530   1.045       .  S
N3528      H3531   1.046       .  S
N3528      H3532   1.045       .  S
C3533      C3534   1.402       .  A
C3533      C3538   1.404   1_655  A
C3533      H3540   1.084       .  S
C3534      C3535   1.405       .  A
C3535      C3536   1.394       .  A
C3535      N3542   1.433       .  S
C3536      C3537   1.402   1_655  A
C3536      H3541   1.084       .  S
C3537      C3538   1.414       .  A
C3538      N3539   1.437       .  S
N3539      H3543   1.046       .  S
N3539      H3544   1.046       .  S
N3542      H3545   1.046       .  S
N3542      H3546   1.046       .  S
C3547      C3548   1.403       .  A
C3547      C3552   1.395       .  A
C3547      H3554   1.083       .  S
C3548      C3549   1.418       .  A
C3549      C3550   1.395       .  A
C3549      N3556   1.432       .  S
C3550      C3551   1.401       .  A
C3550      H3555   1.084       .  S
C3551      C3552   1.406       .  A
C3552      N3553   1.432       .  S
N3553      H3557   1.046       .  S
N3553      H3558   1.046       .  S
N3556      H3559   1.045       .  S
N3556      H3560   1.044       .  S
C3561      C3562   1.418       .  A
C3561      C3566   1.404       .  A
C3561      H3568   1.082       .  S
C3562      C3563   1.409       .  A
C3563      C3564   1.409       .  A
C3563      N3570   1.431       .  S
C3564      C3565   1.416       .  A
C3564      H3569   1.084       .  S
C3565      C3566   1.407       .  A
C3566      N3567   1.432       .  S
N3567      H3571   1.045       .  S
N3567      H3572   1.045       .  S
N3570      H3573   1.045       .  S
N3570      H3574   1.045       .  S
C3575      C3576   1.416       .  A
C3575      C3580   1.407       .  A
C3575      H3582   1.084       .  S
C3576      C3577   1.403       .  A
C3577      C3578   1.398       .  A
C3577      N3584   1.432       .  S
C3578      C3579   1.418       .  A
C3578      H3583   1.084       .  S
C3579      C3580   1.408       .  A
C3580      N3581   1.431       .  S
N3581      H3585   1.047       .  S
N3581      H3586   1.044       .  S
N3584      H3587   1.043       .  S
N3584      H3588   1.048       .  S
C3589      C3590   1.422       .  A
C3589      C3594   1.409   1_545  A
C3589      H3596   1.083       .  S
C3590      C3591   1.411       .  A
C3591      C3592   1.414   1_545  A
C3591      N3598   1.431       .  S
C3592      C3593   1.422       .  A
C3592      H3597   1.083       .  S
C3593      C3594   1.409       .  A
C3594      N3595   1.432       .  S
N3595      H3599   1.045       .  S
N3595      H3600   1.045       .  S
N3598      H3601   1.043       .  S
N3598      H3602   1.047       .  S
C3603      C3604   1.404       .  A
C3603      C3608   1.399   1_565  A
C3603      H3610   1.084       .  S
C3604      C3605   1.403       .  A
C3605      C3606   1.390       .  A
C3605      N3612   1.428       .  S
C3606      C3607   1.398       .  A
C3606      H3611   1.081       .  S
C3607      C3608   1.409   1_565  A
C3608      N3609   1.432       .  S
N3609      H3613   1.046       .  S
N3609      H3614   1.045       .  S
N3612      H3615   1.046       .  S
N3612      H3616   1.046       .  S
C3617      C3618   1.401       .  A
C3617      C3622   1.415       .  A
C3617      H3624   1.083       .  S
C3618      C3619   1.423       .  A
C3619      C3620   1.410       .  A
C3619      N3626   1.433       .  S
C3620      C3621   1.397       .  A
C3620      H3625   1.084       .  S
C3621      C3622   1.417       .  A
C3622      N3623   1.432       .  S
N3623      H3627   1.045       .  S
N3623      H3628   1.046       .  S
N3626      H3629   1.046       .  S
N3626      H3630   1.045       .  S
C3631      C3632   1.420       .  A
C3631      C3636   1.414       .  A
C3631      H3638   1.083       .  S
C3632      C3633   1.404       .  A
C3633      C3634   1.416       .  A
C3633      N3640   1.437       .  S
C3634      C3635   1.424       .  A
C3634      H3639   1.083       .  S
C3635      C3636   1.404       .  A
C3636      N3637   1.436       .  S
N3637      H3641   1.045       .  S
N3637      H3642   1.046       .  S
N3640      H3643   1.046       .  S
N3640      H3644   1.045       .  S
C3645      C3646   1.402       .  A
C3645      C3650   1.397       .  A
C3645      H3652   1.084       .  S
C3646      C3647   1.409       .  A
C3647      C3648   1.398       .  A
C3647      N3654   1.432       .  S
C3648      C3649   1.401       .  A
C3648      H3653   1.084       .  S
C3649      C3650   1.410       .  A
C3650      N3651   1.438       .  S
N3651      H3655   1.046       .  S
N3651      H3656   1.045       .  S
N3654      H3657   1.045       .  S
N3654      H3658   1.046       .  S
C3659      C3660   1.404       .  A
C3659      C3664   1.399       .  A
C3659      H3666   1.084       .  S
C3660      C3661   1.406       .  A
C3661      C3662   1.394       .  A
C3661      N3668   1.433       .  S
C3662      C3663   1.401       .  A
C3662      H3667   1.081       .  S
C3663      C3664   1.408       .  A
C3664      N3665   1.432       .  S
N3665      H3669   1.046       .  S
N3665      H3670   1.046       .  S
N3668      H3671   1.046       .  S
N3668      H3672   1.046       .  S
C3673      C3674   1.417       .  A
C3673      C3678   1.410       .  A
C3673      H3680   1.084       .  S
C3674      C3675   1.407       .  A
C3675      C3676   1.404       .  A
C3675      N3682   1.432       .  S
C3676      C3677   1.420       .  A
C3676      H3681   1.083       .  S
C3677      C3678   1.411       .  A
C3678      N3679   1.431       .  S
N3679      H3683   1.046       .  S
N3679      H3684   1.044       .  S
N3682      H3685   1.044       .  S
N3682      H3686   1.046       .  S
C3687      C3688   1.422       .  A
C3687      C3692   1.406   1_655  A
C3687      H3694   1.083       .  S
C3688      C3689   1.409       .  A
C3689      C3690   1.406   1_655  A
C3689      N3696   1.431       .  S
C3690      C3691   1.417       .  A
C3690      H3695   1.084       .  S
C3691      C3692   1.405       .  A
C3692      N3693   1.432       .  S
N3693      H3697   1.045       .  S
N3693      H3698   1.046       .  S
N3696      H3699   1.044       .  S
N3696      H3700   1.046       .  S
C3701      C3702   1.403       .  A
C3701      C3706   1.399       .  A
C3701      H3708   1.084       .  S
C3702      C3703   1.412       .  A
C3703      C3704   1.400       .  A
C3703      N3710   1.438       .  S
C3704      C3705   1.402       .  A
C3704      H3709   1.084       .  S
C3705      C3706   1.409       .  A
C3706      N3707   1.433   1_655  S
N3707      H3711   1.046       .  S
N3707      H3712   1.046       .  S
N3710      H3713   1.045       .  S
N3710      H3714   1.046       .  S
C3715      C3716   1.420       .  A
C3715      C3720   1.413       .  A
C3715      H3722   1.083       .  S
C3716      C3717   1.411       .  A
C3717      C3718   1.412       .  A
C3717      N3724   1.431       .  S
C3718      C3719   1.417       .  A
C3718      H3723   1.084       .  S
C3719      C3720   1.404       .  A
C3720      N3721   1.437       .  S
N3721      H3725   1.045       .  S
N3721      H3726   1.045       .  S
N3724      H3727   1.045       .  S
N3724      H3728   1.045       .  S
C3729      C3730   1.420       .  A
C3729      C3734   1.403   1_565  A
C3729      H3736   1.083       .  S
C3730      C3731   1.408       .  A
C3731      C3732   1.407   1_565  A
C3731      N3738   1.432       .  S
C3732      C3733   1.419       .  A
C3732      H3737   1.083       .  S
C3733      C3734   1.398       .  A
C3734      N3735   1.432       .  S
N3735      H3739   1.045       .  S
N3735      H3740   1.046       .  S
N3738      H3741   1.045       .  S
N3738      H3742   1.045       .  S
C3743      C3744   1.419       .  A
C3743      C3748   1.411   1_655  A
C3743      H3750   1.084       .  S
C3744      C3745   1.406       .  A
C3745      C3746   1.401   1_655  A
C3745      N3752   1.432       .  S
C3746      C3747   1.420       .  A
C3746      H3751   1.083       .  S
C3747      C3748   1.410       .  A
C3748      N3749   1.431       .  S
N3749      H3753   1.045       .  S
N3749      H3754   1.045       .  S
N3752      H3755   1.045       .  S
N3752      H3756   1.046       .  S
C3757      C3758   1.401       .  A
C3757      C3762   1.396       .  A
C3757      H3764   1.084       .  S
C3758      C3759   1.410       .  A
C3759      C3760   1.401   1_565  A
C3759      N3766   1.432       .  S
C3760      C3761   1.403       .  A
C3760      H3765   1.084       .  S
C3761      C3762   1.411   1_545  A
C3762      N3763   1.437       .  S
N3763      H3767   1.046       .  S
N3763      H3768   1.046       .  S
N3766      H3769   1.046       .  S
N3766      H3770   1.045   1_565  S
C3771      C3772   1.406       .  A
C3771      C3776   1.405       .  A
C3771      H3778   1.083       .  S
C3772      C3773   1.414       .  A
C3773      C3774   1.388       .  A
C3773      N3780   1.429       .  S
C3774      C3775   1.398       .  A
C3774      H3779   1.085       .  S
C3775      C3776   1.412       .  A
C3776      N3777   1.438   1_655  S
N3777      H3781   1.046       .  S
N3777      H3782   1.045       .  S
N3780      H3783   1.045       .  S
N3780      H3784   1.044       .  S
C3785      C3786   1.401       .  A
C3785      C3790   1.395       .  A
C3785      H3792   1.084       .  S
C3786      C3787   1.405       .  A
C3787      C3788   1.394       .  A
C3787      N3794   1.429       .  S
C3788      C3789   1.400       .  A
C3788      H3793   1.084       .  S
C3789      C3790   1.417       .  A
C3790      N3791   1.432       .  S
N3791      H3795   1.044       .  S
N3791      H3796   1.046       .  S
N3794      H3797   1.046       .  S
N3794      H3798   1.046       .  S
C3799      C3800   1.420       .  A
C3799      C3804   1.408       .  A
C3799      H3806   1.083       .  S
C3800      C3801   1.406       .  A
C3801      C3802   1.406       .  A
C3801      N3808   1.432       .  S
C3802      C3803   1.422       .  A
C3802      H3807   1.083       .  S
C3803      C3804   1.408       .  A
C3804      N3805   1.431       .  S
N3805      H3809   1.045       .  S
N3805      H3810   1.046       .  S
N3808      H3811   1.046       .  S
N3808      H3812   1.045       .  S
C3813      C3814   1.398       .  A
C3813      C3818   1.389       .  A
C3813      H3820   1.084       .  S
C3814      C3815   1.412       .  A
C3815      C3816   1.401       .  A
C3815      N3822   1.438       .  S
C3816      C3817   1.402       .  A
C3816      H3821   1.083       .  S
C3817      C3818   1.410       .  A
C3818      N3819   1.429       .  S
N3819      H3823   1.042       .  S
N3819      H3824   1.045       .  S
N3822      H3825   1.047       .  S
N3822      H3826   1.044       .  S
C3827      C3828   1.421       .  A
C3827      C3832   1.414       .  A
C3827      H3834   1.082       .  S
C3828      C3829   1.410       .  A
C3829      C3830   1.411       .  A
C3829      N3836   1.431       .  S
C3830      C3831   1.420       .  A
C3830      H3835   1.083       .  S
C3831      C3832   1.406       .  A
C3832      N3833   1.437       .  S
N3833      H3837   1.045       .  S
N3833      H3838   1.046       .  S
N3836      H3839   1.045       .  S
N3836      H3840   1.045       .  S
C3841      C3842   1.421       .  A
C3841      C3846   1.414       .  A
C3841      H3848   1.083       .  S
C3842      C3843   1.400       .  A
C3843      C3844   1.408       .  A
C3843      N3850   1.431       .  S
C3844      C3845   1.420       .  A
C3844      H3849   1.083       .  S
C3845      C3846   1.405       .  A
C3846      N3847   1.437       .  S
N3847      H3851   1.045       .  S
N3847      H3852   1.046       .  S
N3850      H3853   1.045       .  S
N3850      H3854   1.046       .  S
C3855      C3856   1.420       .  A
C3855      C3860   1.406       .  A
C3855      H3862   1.083       .  S
C3856      C3857   1.409       .  A
C3857      C3858   1.404       .  A
C3857      N3864   1.431       .  S
C3858      C3859   1.418       .  A
C3858      H3863   1.083       .  S
C3859      C3860   1.408       .  A
C3860      N3861   1.432       .  S
N3861      H3865   1.045       .  S
N3861      H3866   1.046       .  S
N3864      H3867   1.044       .  S
N3864      H3868   1.046       .  S
C3869      C3870   1.420       .  A
C3869      C3874   1.418   1_655  A
C3869      H3876   1.083       .  S
C3870      C3871   1.407       .  A
C3871      C3872   1.418   1_655  A
C3871      N3878   1.437       .  S
C3872      C3873   1.421       .  A
C3872      H3877   1.083       .  S
C3873      C3874   1.407       .  A
C3874      N3875   1.437       .  S
N3875      H3879   1.045       .  S
N3875      H3880   1.046       .  S
N3878      H3881   1.045       .  S
N3878      H3882   1.046       .  S
C3883      C3884   1.419   1_554  A
C3883      C3888   1.409       .  A
C3883      H3890   1.084   1_554  S
C3884      C3885   1.404       .  A
C3885      C3886   1.404   1_556  A
C3885      N3892   1.432       .  S
C3886      C3887   1.422       .  A
C3886      H3891   1.083       .  S
C3887      C3888   1.409       .  A
C3888      N3889   1.431       .  S
N3889      H3893   1.045       .  S
N3889      H3894   1.045       .  S
N3892      H3895   1.045       .  S
N3892      H3896   1.045       .  S
C3897      C3898   1.403       .  A
C3897      C3902   1.418       .  A
C3897      H3904   1.083       .  S
C3898      C3899   1.428       .  A
C3899      C3900   1.409       .  A
C3899      N3906   1.433       .  S
C3900      C3901   1.395       .  A
C3900      H3905   1.084       .  S
C3901      C3902   1.420       .  A
C3902      N3903   1.432       .  S
N3903      H3907   1.046       .  S
N3903      H3908   1.046       .  S
N3906      H3909   1.046       .  S
N3906      H3910   1.046       .  S
C3911      C3912   1.421       .  A
C3911      C3916   1.407       .  A
C3911      H3918   1.083       .  S
C3912      C3913   1.407       .  A
C3913      C3914   1.408       .  A
C3913      N3920   1.432       .  S
C3914      C3915   1.422       .  A
C3914      H3919   1.083       .  S
C3915      C3916   1.408       .  A
C3916      N3917   1.431       .  S
N3917      H3921   1.045       .  S
N3917      H3922   1.046       .  S
N3920      H3923   1.045       .  S
N3920      H3924   1.046       .  S
C3925      C3926   1.420       .  A
C3925      C3930   1.405       .  A
C3925      H3932   1.083       .  S
C3926      C3927   1.406       .  A
C3927      C3928   1.408       .  A
C3927      N3934   1.432       .  S
C3928      C3929   1.423       .  A
C3928      H3933   1.083       .  S
C3929      C3930   1.407       .  A
C3930      N3931   1.431       .  S
N3931      H3935   1.047       .  S
N3931      H3936   1.044       .  S
N3934      H3937   1.043       .  S
N3934      H3938   1.048       .  S
C3939      C3940   1.403   1_554  A
C3939      C3944   1.401       .  A
C3939      H3946   1.084       .  S
C3940      C3941   1.404       .  A
C3941      C3942   1.394   1_556  A
C3941      N3948   1.429       .  S
C3942      C3943   1.399       .  A
C3942      H3947   1.084       .  S
C3943      C3944   1.410       .  A
C3944      N3945   1.432       .  S
N3945      H3949   1.046       .  S
N3945      H3950   1.046       .  S
N3948      H3951   1.045       .  S
N3948      H3952   1.045       .  S
C3953      C3954   1.422       .  A
C3953      C3958   1.413   1_655  A
C3953      H3960   1.083       .  S
C3954      C3955   1.410       .  A
C3955      C3956   1.412   1_655  A
C3955      N3962   1.431       .  S
C3956      C3957   1.419       .  A
C3956      H3961   1.084       .  S
C3957      C3958   1.403       .  A
C3958      N3959   1.437       .  S
N3959      H3963   1.046       .  S
N3959      H3964   1.045       .  S
N3962      H3965   1.045       .  S
N3962      H3966   1.046       .  S
C3967      C3968   1.400       .  A
C3967      C3972   1.415       .  A
C3967      H3974   1.083       .  S
C3968      C3969   1.432       .  A
C3969      C3970   1.409       .  A
C3969      N3976   1.433       .  S
C3970      C3971   1.394       .  A
C3970      H3975   1.084       .  S
C3971      C3972   1.425       .  A
C3972      N3973   1.432       .  S
N3973      H3977   1.045       .  S
N3973      H3978   1.046       .  S
N3976      H3979   1.046       .  S
N3976      H3980   1.046       .  S
C3981      C3982   1.420       .  A
C3981      C3986   1.404       .  A
C3981      H3988   1.083       .  S
C3982      C3983   1.410       .  A
C3983      C3984   1.410       .  A
C3983      N3990   1.432       .  S
C3984      C3985   1.421       .  A
C3984      H3989   1.083       .  S
C3985      C3986   1.406       .  A
C3986      N3987   1.431       .  S
N3987      H3991   1.043       .  S
N3987      H3992   1.047       .  S
N3990      H3993   1.045       .  S
N3990      H3994   1.046       .  S
C3995      C3996   1.419       .  A
C3995      C4000   1.411       .  A
C3995      H4002   1.083       .  S
C3996      C3997   1.402       .  A
C3997      C3998   1.408       .  A
C3997      N4004   1.432       .  S
C3998      C3999   1.420       .  A
C3998      H4003   1.083       .  S
C3999      C4000   1.402       .  A
C4000      N4001   1.431       .  S
N4001      H4005   1.046       .  S
N4001      H4006   1.045       .  S
N4004      H4007   1.046       .  S
N4004      H4008   1.045       .  S
C4009      C4010   1.401       .  A
C4009      C4014   1.394   1_655  A
C4009      H4016   1.084       .  S
C4010      C4011   1.405       .  A
C4011      C4012   1.394       .  A
C4011      N4018   1.429       .  S
C4012      C4013   1.400       .  A
C4012      H4017   1.083       .  S
C4013      C4014   1.417   1_655  A
C4014      N4015   1.432       .  S
N4015      H4019   1.045       .  S
N4015      H4020   1.046       .  S
N4018      H4021   1.046       .  S
N4018      H4022   1.046       .  S
C4023      C4024   1.421       .  A
C4023      C4028   1.414   1_556  A
C4023      H4030   1.083       .  S
C4024      C4025   1.402       .  A
C4025      C4026   1.412   1_556  A
C4025      N4032   1.437       .  S
C4026      C4027   1.424       .  A
C4026      H4031   1.082       .  S
C4027      C4028   1.403       .  A
C4028      N4029   1.437       .  S
N4029      H4033   1.046       .  S
N4029      H4034   1.045       .  S
N4032      H4035   1.045       .  S
N4032      H4036   1.046       .  S
C4037      C4038   1.402       .  A
C4037      C4042   1.403   1_456  A
C4037      H4044   1.084       .  S
C4038      C4039   1.409   1_455  A
C4039      C4040   1.397       .  A
C4039      N4046   1.433       .  S
C4040      C4041   1.402   1_556  A
C4040      H4045   1.084       .  S
C4041      C4042   1.412       .  A
C4042      N4043   1.432       .  S
N4043      H4047   1.045   1_655  S
N4043      H4048   1.046       .  S
N4046      H4049   1.045       .  S
N4046      H4050   1.046       .  S
C4051      C4052   1.420       .  A
C4051      C4056   1.412       .  A
C4051      H4058   1.083       .  S
C4052      C4053   1.406       .  A
C4053      C4054   1.414       .  A
C4053      N4060   1.437       .  S
C4054      C4055   1.418       .  A
C4054      H4059   1.083       .  S
C4055      C4056   1.404       .  A
C4056      N4057   1.437       .  S
N4057      H4061   1.045       .  S
N4057      H4062   1.046       .  S
N4060      H4063   1.045       .  S
N4060      H4064   1.046       .  S
C4065      C4066   1.404       .  A
C4065      C4070   1.395       .  A
C4065      H4072   1.084       .  S
C4066      C4067   1.404       .  A
C4067      C4068   1.394       .  A
C4067      N4074   1.433       .  S
C4068      C4069   1.405       .  A
C4068      H4073   1.084       .  S
C4069      C4070   1.415       .  A
C4070      N4071   1.432       .  S
N4071      H4075   1.044       .  S
N4071      H4076   1.045       .  S
N4074      H4077   1.046       .  S
N4074      H4078   1.046       .  S
C4079      C4080   1.422       .  A
C4079      C4084   1.409       .  A
C4079      H4086   1.083       .  S
C4080      C4081   1.408       .  A
C4081      C4082   1.411       .  A
C4081      N4088   1.431       .  S
C4082      C4083   1.419       .  A
C4082      H4087   1.084       .  S
C4083      C4084   1.401       .  A
C4084      N4085   1.438       .  S
N4085      H4089   1.045       .  S
N4085      H4090   1.046       .  S
N4088      H4091   1.045       .  S
N4088      H4092   1.045       .  S
C4093      C4094   1.418   1_554  A
C4093      C4098   1.406       .  A
C4093      H4100   1.084   1_554  S
C4094      C4095   1.406       .  A
C4095      C4096   1.405   1_556  A
C4095      N4102   1.432       .  S
C4096      C4097   1.421       .  A
C4096      H4101   1.083       .  S
C4097      C4098   1.408       .  A
C4098      N4099   1.431       .  S
N4099      H4103   1.045       .  S
N4099      H4104   1.045       .  S
N4102      H4105   1.046       .  S
N4102      H4106   1.045       .  S
C4107      C4108   1.400       .  A
C4107      C4112   1.390       .  A
C4107      H4114   1.084       .  S
C4108      C4109   1.417   1_556  A
C4109      C4110   1.401       .  A
C4109      N4116   1.432       .  S
C4110      C4111   1.405       .  A
C4110      H4115   1.084       .  S
C4111      C4112   1.406   1_554  A
C4112      N4113   1.430       .  S
N4113      H4117   1.046       .  S
N4113      H4118   1.046       .  S
N4116      H4119   1.045       .  S
N4116      H4120   1.045   1_554  S
C4121      C4122   1.420       .  A
C4121      C4126   1.409       .  A
C4121      H4128   1.083       .  S
C4122      C4123   1.410       .  A
C4123      C4124   1.407       .  A
C4123      N4130   1.431       .  S
C4124      C4125   1.415       .  A
C4124      H4129   1.084       .  S
C4125      C4126   1.400       .  A
C4126      N4127   1.432       .  S
N4127      H4131   1.046       .  S
N4127      H4132   1.046       .  S
N4130      H4133   1.045       .  S
N4130      H4134   1.045       .  S
C4135      C4136   1.422       .  A
C4135      C4140   1.411   1_455  A
C4135      H4142   1.083       .  S
C4136      C4137   1.409       .  A
C4137      C4138   1.406   1_455  A
C4137      N4144   1.431       .  S
C4138      C4139   1.416       .  A
C4138      H4143   1.084       .  S
C4139      C4140   1.400       .  A
C4140      N4141   1.432       .  S
N4141      H4145   1.045       .  S
N4141      H4146   1.046       .  S
N4144      H4147   1.045       .  S
N4144      H4148   1.045       .  S
C4149      C4150   1.419       .  A
C4149      C4154   1.412   1_554  A
C4149      H4156   1.083       .  S
C4150      C4151   1.403       .  A
C4151      C4152   1.414       .  A
C4151      N4158   1.437       .  S
C4152      C4153   1.420   1_554  A
C4152      H4157   1.083   1_554  S
C4153      C4154   1.406       .  A
C4154      N4155   1.437       .  S
N4155      H4159   1.045       .  S
N4155      H4160   1.046       .  S
N4158      H4161   1.045       .  S
N4158      H4162   1.046       .  S
C4163      C4164   1.399       .  A
C4163      C4168   1.389       .  A
C4163      H4170   1.085       .  S
C4164      C4165   1.412       .  A
C4165      C4166   1.403   1_556  A
C4165      N4172   1.438       .  S
C4166      C4167   1.404       .  A
C4166      H4171   1.083       .  S
C4167      C4168   1.413   1_554  A
C4168      N4169   1.430       .  S
N4169      H4173   1.044       .  S
N4169      H4174   1.045       .  S
N4172      H4175   1.045       .  S
N4172      H4176   1.046   1_556  S
C4177      C4178   1.403       .  A
C4177      C4182   1.400   1_655  A
C4177      H4184   1.084       .  S
C4178      C4179   1.409       .  A
C4179      C4180   1.395       .  A
C4179      N4186   1.435       .  S
C4180      C4181   1.397   1_655  A
C4180      H4185   1.082       .  S
C4181      C4182   1.409       .  A
C4182      N4183   1.433       .  S
N4183      H4187   1.046       .  S
N4183      H4188   1.046       .  S
N4186      H4189   1.045       .  S
N4186      H4190   1.045       .  S
C4191      C4192   1.400       .  A
C4191      C4196   1.394       .  A
C4191      H4198   1.084       .  S
C4192      C4193   1.410       .  A
C4193      C4194   1.398       .  A
C4193      N4200   1.433       .  S
C4194      C4195   1.403       .  A
C4194      H4199   1.084       .  S
C4195      C4196   1.419       .  A
C4196      N4197   1.433       .  S
N4197      H4201   1.045       .  S
N4197      H4202   1.044       .  S
N4200      H4203   1.046       .  S
N4200      H4204   1.046       .  S
C4205      C4206   1.422       .  A
C4205      C4210   1.416       .  A
C4205      H4212   1.083       .  S
C4206      C4207   1.412       .  A
C4207      C4208   1.410       .  A
C4207      N4214   1.431       .  S
C4208      C4209   1.418       .  A
C4208      H4213   1.083       .  S
C4209      C4210   1.404       .  A
C4210      N4211   1.431       .  S
N4211      H4215   1.045       .  S
N4211      H4216   1.046       .  S
N4214      H4217   1.045       .  S
N4214      H4218   1.045       .  S
C4219      C4220   1.421       .  A
C4219      C4224   1.414       .  A
C4219      H4226   1.083       .  S
C4220      C4221   1.407       .  A
C4221      C4222   1.407       .  A
C4221      N4228   1.431       .  S
C4222      C4223   1.420       .  A
C4222      H4227   1.083       .  S
C4223      C4224   1.404       .  A
C4224      N4225   1.432       .  S
N4225      H4229   1.046       .  S
N4225      H4230   1.046       .  S
N4228      H4231   1.045       .  S
N4228      H4232   1.045       .  S
C4233      C4234   1.419       .  A
C4233      C4238   1.418       .  A
C4233      H4240   1.083       .  S
C4234      C4235   1.405       .  A
C4235      C4236   1.411       .  A
C4235      N4242   1.431       .  S
C4236      C4237   1.415       .  A
C4236      H4241   1.084       .  S
C4237      C4238   1.408       .  A
C4238      N4239   1.437       .  S
N4239      H4243   1.046       .  S
N4239      H4244   1.046       .  S
N4242      H4245   1.046       .  S
N4242      H4246   1.046       .  S
C4247      C4248   1.400       .  A
C4247      C4252   1.394       .  A
C4247      H4254   1.079       .  S
C4248      C4249   1.411       .  A
C4249      C4250   1.403       .  A
C4249      N4256   1.438       .  S
C4250      C4251   1.405       .  A
C4250      H4255   1.083       .  S
C4251      C4252   1.406       .  A
C4252      N4253   1.433       .  S
N4253      H4257   1.046       .  S
N4253      H4258   1.046       .  S
N4256      H4259   1.046       .  S
N4256      H4260   1.046       .  S
C4261      C4262   1.419       .  A
C4261      C4266   1.416       .  A
C4261      H4268   1.083       .  S
C4262      C4263   1.404       .  A
C4263      C4264   1.399       .  A
C4263      N4270   1.432       .  S
C4264      C4265   1.420       .  A
C4264      H4269   1.083       .  S
C4265      C4266   1.405       .  A
C4266      N4267   1.436       .  S
N4267      H4271   1.045       .  S
N4267      H4272   1.046       .  S
N4270      H4273   1.045       .  S
N4270      H4274   1.045       .  S
C4275      C4276   1.404       .  A
C4275      C4280   1.399       .  A
C4275      H4282   1.084       .  S
C4276      C4277   1.408       .  A
C4277      C4278   1.400       .  A
C4277      N4284   1.435       .  S
C4278      C4279   1.404       .  A
C4278      H4283   1.083       .  S
C4279      C4280   1.409       .  A
C4280      N4281   1.432       .  S
N4281      H4285   1.046       .  S
N4281      H4286   1.046       .  S
N4284      H4287   1.045       .  S
N4284      H4288   1.046       .  S
C4289      C4290   1.421       .  A
C4289      C4294   1.404   1_655  A
C4289      H4296   1.083       .  S
C4290      C4291   1.407       .  A
C4291      C4292   1.407   1_655  A
C4291      N4298   1.431       .  S
C4292      C4293   1.420       .  A
C4292      H4297   1.083       .  S
C4293      C4294   1.406       .  A
C4294      N4295   1.432       .  S
N4295      H4299   1.045       .  S
N4295      H4300   1.045       .  S
N4298      H4301   1.045       .  S
N4298      H4302   1.046       .  S
C4303      C4304   1.401       .  A
C4303      C4308   1.395       .  A
C4303      H4310   1.084       .  S
C4304      C4305   1.411       .  A
C4305      C4306   1.399   1_655  A
C4305      N4312   1.433       .  S
C4306      C4307   1.403       .  A
C4306      H4311   1.084       .  S
C4307      C4308   1.407   1_455  A
C4308      N4309   1.431       .  S
N4309      H4313   1.046       .  S
N4309      H4314   1.046       .  S
N4312      H4315   1.046   1_655  S
N4312      H4316   1.046       .  S
C4317      C4318   1.401       .  A
C4317      C4322   1.395       .  A
C4317      H4324   1.084       .  S
C4318      C4319   1.416       .  A
C4319      C4320   1.395       .  A
C4319      N4326   1.433       .  S
C4320      C4321   1.403       .  A
C4320      H4325   1.084       .  S
C4321      C4322   1.404       .  A
C4322      N4323   1.429       .  S
N4323      H4327   1.046       .  S
N4323      H4328   1.046       .  S
N4326      H4329   1.046       .  S
N4326      H4330   1.044       .  S
C4331      C4332   1.417       .  A
C4331      C4336   1.402       .  A
C4331      H4338   1.084       .  S
C4332      C4333   1.405       .  A
C4333      C4334   1.403       .  A
C4333      N4340   1.432       .  S
C4334      C4335   1.420       .  A
C4334      H4339   1.083       .  S
C4335      C4336   1.406       .  A
C4336      N4337   1.432       .  S
N4337      H4341   1.045       .  S
N4337      H4342   1.046       .  S
N4340      H4343   1.046       .  S
N4340      H4344   1.045       .  S
C4345      C4346   1.419       .  A
C4345      C4350   1.411       .  A
C4345      H4352   1.083       .  S
C4346      C4347   1.407       .  A
C4347      C4348   1.415       .  A
C4347      N4354   1.437       .  S
C4348      C4349   1.417       .  A
C4348      H4353   1.084       .  S
C4349      C4350   1.404       .  A
C4350      N4351   1.437       .  S
N4351      H4355   1.045       .  S
N4351      H4356   1.045       .  S
N4354      H4357   1.045       .  S
N4354      H4358   1.046       .  S
C4359      C4360   1.421       .  A
C4359      C4364   1.409       .  A
C4359      H4366   1.083       .  S
C4360      C4361   1.404       .  A
C4361      C4362   1.415       .  A
C4361      N4368   1.431       .  S
C4362      C4363   1.420       .  A
C4362      H4367   1.083       .  S
C4363      C4364   1.409       .  A
C4364      N4365   1.432       .  S
N4365      H4369   1.046       .  S
N4365      H4370   1.045       .  S
N4368      H4371   1.045       .  S
N4368      H4372   1.046       .  S
C4373      C4374   1.421       .  A
C4373      C4378   1.410   1_565  A
C4373      H4380   1.082       .  S
C4374      C4375   1.402       .  A
C4375      C4376   1.415   1_565  A
C4375      N4382   1.431       .  S
C4376      C4377   1.421       .  A
C4376      H4381   1.083       .  S
C4377      C4378   1.404       .  A
C4378      N4379   1.437       .  S
N4379      H4383   1.045       .  S
N4379      H4384   1.046       .  S
N4382      H4385   1.046       .  S
N4382      H4386   1.046       .  S
C4387      C4388   1.399       .  A
C4387      C4392   1.412   1_556  A
C4387      H4394   1.084       .  S
C4388      C4389   1.420   1_556  A
C4389      C4390   1.417       .  A
C4389      N4396   1.432   1_554  S
C4390      C4391   1.402       .  A
C4390      H4395   1.083       .  S
C4391      C4392   1.422       .  A
C4392      N4393   1.433       .  S
N4393      H4397   1.046       .  S
N4393      H4398   1.045       .  S
N4396      H4399   1.046   1_556  S
N4396      H4400   1.046       .  S
C4401      C4402   1.417       .  A
C4401      C4406   1.409       .  A
C4401      H4408   1.083       .  S
C4402      C4403   1.409       .  A
C4403      C4404   1.405       .  A
C4403      N4410   1.432       .  S
C4404      C4405   1.419       .  A
C4404      H4409   1.083       .  S
C4405      C4406   1.412       .  A
C4406      N4407   1.431       .  S
N4407      H4411   1.045       .  S
N4407      H4412   1.045       .  S
N4410      H4413   1.046       .  S
N4410      H4414   1.045       .  S
C4415      C4416   1.419       .  A
C4415      C4420   1.405       .  A
C4415      H4422   1.083       .  S
C4416      C4417   1.405       .  A
C4417      C4418   1.403       .  A
C4417      N4424   1.432       .  S
C4418      C4419   1.422       .  A
C4418      H4423   1.083       .  S
C4419      C4420   1.407       .  A
C4420      N4421   1.431       .  S
N4421      H4425   1.045       .  S
N4421      H4426   1.045       .  S
N4424      H4427   1.045       .  S
N4424      H4428   1.045       .  S
C4429      C4430   1.420       .  A
C4429      C4434   1.406       .  A
C4429      H4436   1.083       .  S
C4430      C4431   1.407       .  A
C4431      C4432   1.409       .  A
C4431      N4438   1.431       .  S
C4432      C4433   1.421       .  A
C4432      H4437   1.083       .  S
C4433      C4434   1.409       .  A
C4434      N4435   1.432       .  S
N4435      H4439   1.044       .  S
N4435      H4440   1.046       .  S
N4438      H4441   1.045       .  S
N4438      H4442   1.046       .  S
C4443      C4444   1.403   1_556  A
C4443      C4448   1.396       .  A
C4443      H4450   1.084       .  S
C4444      C4445   1.412       .  A
C4445      C4446   1.404   1_554  A
C4445      N4452   1.438       .  S
C4446      C4447   1.405       .  A
C4446      H4451   1.083       .  S
C4447      C4448   1.407       .  A
C4448      N4449   1.433       .  S
N4449      H4453   1.045       .  S
N4449      H4454   1.046       .  S
N4452      H4455   1.045       .  S
N4452      H4456   1.046       .  S
C4457      C4458   1.422       .  A
C4457      C4462   1.412   1_565  A
C4457      H4464   1.083       .  S
C4458      C4459   1.404       .  A
C4459      C4460   1.414   1_565  A
C4459      N4466   1.437       .  S
C4460      C4461   1.420       .  A
C4460      H4465   1.083       .  S
C4461      C4462   1.404       .  A
C4462      N4463   1.437       .  S
N4463      H4467   1.046       .  S
N4463      H4468   1.045       .  S
N4466      H4469   1.046       .  S
N4466      H4470   1.046       .  S
C4471      C4472   1.419       .  A
C4471      C4476   1.407       .  A
C4471      H4478   1.083       .  S
C4472      C4473   1.411       .  A
C4473      C4474   1.408       .  A
C4473      N4480   1.431       .  S
C4474      C4475   1.415       .  A
C4474      H4479   1.084       .  S
C4475      C4476   1.407       .  A
C4476      N4477   1.432       .  S
N4477      H4481   1.046       .  S
N4477      H4482   1.045       .  S
N4480      H4483   1.045       .  S
N4480      H4484   1.045       .  S
C4485      C4486   1.420       .  A
C4485      C4490   1.415       .  A
C4485      H4492   1.083       .  S
C4486      C4487   1.407       .  A
C4487      C4488   1.416       .  A
C4487      N4494   1.437       .  S
C4488      C4489   1.420       .  A
C4488      H4493   1.083       .  S
C4489      C4490   1.407       .  A
C4490      N4491   1.437       .  S
N4491      H4495   1.046       .  S
N4491      H4496   1.045       .  S
N4494      H4497   1.046       .  S
N4494      H4498   1.045       .  S
C4499      C4500   1.419       .  A
C4499      C4504   1.413       .  A
C4499      H4506   1.084       .  S
C4500      C4501   1.406       .  A
C4501      C4502   1.406       .  A
C4501      N4508   1.432       .  S
C4502      C4503   1.420       .  A
C4502      H4507   1.084       .  S
C4503      C4504   1.410       .  A
C4504      N4505   1.431       .  S
N4505      H4509   1.045       .  S
N4505      H4510   1.045       .  S
N4508      H4511   1.046       .  S
N4508      H4512   1.045       .  S
C4513      C4514   1.404       .  A
C4513      C4518   1.401   1_545  A
C4513      H4520   1.084       .  S
C4514      C4515   1.407   1_545  A
C4515      C4516   1.396       .  A
C4515      N4522   1.434       .  S
C4516      C4517   1.399       .  A
C4516      H4521   1.084       .  S
C4517      C4518   1.409       .  A
C4518      N4519   1.432       .  S
N4519      H4523   1.046   1_565  S
N4519      H4524   1.046   1_565  S
N4522      H4525   1.046   1_565  S
N4522      H4526   1.046       .  S
C4527      C4528   1.420       .  A
C4527      C4532   1.415   1_554  A
C4527      H4534   1.083       .  S
C4528      C4529   1.405       .  A
C4529      C4530   1.414       .  A
C4529      N4536   1.437       .  S
C4530      C4531   1.420   1_554  A
C4530      H4535   1.083   1_554  S
C4531      C4532   1.406       .  A
C4532      N4533   1.437       .  S
N4533      H4537   1.045       .  S
N4533      H4538   1.046       .  S
N4536      H4539   1.045       .  S
N4536      H4540   1.046       .  S
C4541      C4542   1.406   1_554  A
C4541      C4546   1.405   1_545  A
C4541      H4548   1.083       .  S
C4542      C4543   1.414   1_545  A
C4543      C4544   1.389   1_556  A
C4543      N4550   1.430       .  S
C4544      C4545   1.398       .  A
C4544      H4549   1.085       .  S
C4545      C4546   1.410       .  A
C4546      N4547   1.437       .  S
N4547      H4551   1.046   1_565  S
N4547      H4552   1.046   1_565  S
N4550      H4553   1.044   1_565  S
N4550      H4554   1.044       .  S
C4555      C4556   1.418       .  A
C4555      C4560   1.413       .  A
C4555      H4562   1.083       .  S
C4556      C4557   1.403       .  A
C4557      C4558   1.407       .  A
C4557      N4564   1.438       .  S
C4558      C4559   1.419       .  A
C4558      H4563   1.082       .  S
C4559      C4560   1.405       .  A
C4560      N4561   1.437       .  S
N4561      H4565   1.045       .  S
N4561      H4566   1.046       .  S
N4564      H4567   1.046       .  S
N4564      H4568   1.045       .  S
C4569      C4570   1.404       .  A
C4569      C4574   1.398       .  A
C4569      H4576   1.084       .  S
C4570      C4571   1.409       .  A
C4571      C4572   1.400       .  A
C4571      N4578   1.437       .  S
C4572      C4573   1.405       .  A
C4572      H4577   1.084       .  S
C4573      C4574   1.409       .  A
C4574      N4575   1.432       .  S
N4575      H4579   1.046       .  S
N4575      H4580   1.046       .  S
N4578      H4581   1.045       .  S
N4578      H4582   1.046       .  S
C4583      C4584   1.401       .  A
C4583      C4588   1.418       .  A
C4583      H4590   1.083       .  S
C4584      C4585   1.428       .  A
C4585      C4586   1.411       .  A
C4585      N4592   1.433       .  S
C4586      C4587   1.396       .  A
C4586      H4591   1.084       .  S
C4587      C4588   1.424       .  A
C4588      N4589   1.438       .  S
N4589      H4593   1.046       .  S
N4589      H4594   1.045       .  S
N4592      H4595   1.046       .  S
N4592      H4596   1.046       .  S
C4597      C4598   1.423   1_554  A
C4597      C4602   1.412       .  A
C4597      H4604   1.083   1_554  S
C4598      C4599   1.409       .  A
C4599      C4600   1.408   1_556  A
C4599      N4606   1.431       .  S
C4600      C4601   1.419       .  A
C4600      H4605   1.084       .  S
C4601      C4602   1.401       .  A
C4602      N4603   1.432       .  S
N4603      H4607   1.046       .  S
N4603      H4608   1.046       .  S
N4606      H4609   1.046       .  S
N4606      H4610   1.044       .  S
C4611      C4612   1.404       .  A
C4611      C4616   1.400   1_556  A
C4611      H4618   1.084       .  S
C4612      C4613   1.405       .  A
C4613      C4614   1.389       .  A
C4613      N4620   1.427       .  S
C4614      C4615   1.395   1_556  A
C4614      H4619   1.082       .  S
C4615      C4616   1.408       .  A
C4616      N4617   1.432       .  S
N4617      H4621   1.046       .  S
N4617      H4622   1.046       .  S
N4620      H4623   1.046       .  S
N4620      H4624   1.045       .  S
C4625      C4626   1.419       .  A
C4625      C4630   1.415       .  A
C4625      H4632   1.084       .  S
C4626      C4627   1.400       .  A
C4627      C4628   1.411       .  A
C4627      N4634   1.437       .  S
C4628      C4629   1.421       .  A
C4628      H4633   1.083       .  S
C4629      C4630   1.406       .  A
C4630      N4631   1.437       .  S
N4631      H4635   1.046       .  S
N4631      H4636   1.045       .  S
N4634      H4637   1.045       .  S
N4634      H4638   1.046       .  S
C4639      C4640   1.420       .  A
C4639      C4644   1.408   1_565  A
C4639      H4646   1.083       .  S
C4640      C4641   1.412       .  A
C4641      C4642   1.411   1_565  A
C4641      N4648   1.431       .  S
C4642      C4643   1.417       .  A
C4642      H4647   1.084       .  S
C4643      C4644   1.409       .  A
C4644      N4645   1.432       .  S
N4645      H4649   1.046       .  S
N4645      H4650   1.044       .  S
N4648      H4651   1.045       .  S
N4648      H4652   1.045       .  S
C4653      C4654   1.417       .  A
C4653      C4658   1.412   1_556  A
C4653      H4660   1.084       .  S
C4654      C4655   1.406       .  A
C4655      C4656   1.406   1_556  A
C4655      N4662   1.432       .  S
C4656      C4657   1.420       .  A
C4656      H4661   1.083       .  S
C4657      C4658   1.412       .  A
C4658      N4659   1.431       .  S
N4659      H4663   1.045       .  S
N4659      H4664   1.045       .  S
N4662      H4665   1.046       .  S
N4662      H4666   1.045       .  S
C4667      C4668   1.403       .  A
C4667      C4672   1.402   1_554  A
C4667      H4674   1.084       .  S
C4668      C4669   1.410   1_554  A
C4669      C4670   1.397       .  A
C4669      N4676   1.437       .  S
C4670      C4671   1.402       .  A
C4670      H4675   1.084       .  S
C4671      C4672   1.410       .  A
C4672      N4673   1.432   1_556  S
N4673      H4677   1.046       .  S
N4673      H4678   1.046       .  S
N4676      H4679   1.046       .  S
N4676      H4680   1.045   1_556  S
C4681      C4682   1.403   1_545  A
C4681      C4686   1.401   1_545  A
C4681      H4688   1.084       .  S
C4682      C4683   1.410       .  A
C4683      C4684   1.396       .  A
C4683      N4690   1.432       .  S
C4684      C4685   1.401       .  A
C4684      H4689   1.083       .  S
C4685      C4686   1.411       .  A
C4686      N4687   1.432       .  S
N4687      H4691   1.046   1_565  S
N4687      H4692   1.046       .  S
N4690      H4693   1.046       .  S
N4690      H4694   1.046       .  S
C4695      C4696   1.397       .  A
C4695      C4700   1.392       .  A
C4695      H4702   1.084       .  S
C4696      C4697   1.412       .  A
C4697      C4698   1.405       .  A
C4697      N4704   1.437       .  S
C4698      C4699   1.402       .  A
C4698      H4703   1.083       .  S
C4699      C4700   1.405       .  A
C4700      N4701   1.427       .  S
N4701      H4705   1.045       .  S
N4701      H4706   1.045       .  S
N4704      H4707   1.046       .  S
N4704      H4708   1.046       .  S
C4709      C4710   1.422       .  A
C4709      C4714   1.414       .  A
C4709      H4716   1.083       .  S
C4710      C4711   1.406       .  A
C4711      C4712   1.418       .  A
C4711      N4718   1.436       .  S
C4712      C4713   1.420       .  A
C4712      H4717   1.083       .  S
C4713      C4714   1.406       .  A
C4714      N4715   1.437       .  S
N4715      H4719   1.045       .  S
N4715      H4720   1.045       .  S
N4718      H4721   1.046       .  S
N4718      H4722   1.045       .  S
C4723      C4724   1.401       .  A
C4723      C4728   1.415       .  A
C4723      H4730   1.083       .  S
C4724      C4725   1.421       .  A
C4725      C4726   1.411       .  A
C4725      N4732   1.439       .  S
C4726      C4727   1.398       .  A
C4726      H4731   1.084       .  S
C4727      C4728   1.418       .  A
C4728      N4729   1.438       .  S
N4729      H4733   1.046       .  S
N4729      H4734   1.045       .  S
N4732      H4735   1.046       .  S
N4732      H4736   1.046       .  S
C4737      C4738   1.421       .  A
C4737      C4742   1.413       .  A
C4737      H4744   1.083       .  S
C4738      C4739   1.401       .  A
C4739      C4740   1.411       .  A
C4739      N4746   1.437       .  S
C4740      C4741   1.424       .  A
C4740      H4745   1.082       .  S
C4741      C4742   1.403       .  A
C4742      N4743   1.437       .  S
N4743      H4747   1.047       .  S
N4743      H4748   1.045       .  S
N4746      H4749   1.045       .  S
N4746      H4750   1.046       .  S
C4751      C4752   1.423       .  A
C4751      C4756   1.407       .  A
C4751      H4758   1.083       .  S
C4752      C4753   1.408       .  A
C4753      C4754   1.405       .  A
C4753      N4760   1.431       .  S
C4754      C4755   1.419       .  A
C4754      H4759   1.084       .  S
C4755      C4756   1.406       .  A
C4756      N4757   1.432       .  S
N4757      H4761   1.045       .  S
N4757      H4762   1.045       .  S
N4760      H4763   1.044       .  S
N4760      H4764   1.046       .  S
C4765      C4766   1.404       .  A
C4765      C4770   1.397       .  A
C4765      H4772   1.084       .  S
C4766      C4767   1.406       .  A
C4767      C4768   1.391       .  A
C4767      N4774   1.432       .  S
C4768      C4769   1.399       .  A
C4768      H4773   1.083       .  S
C4769      C4770   1.414       .  A
C4770      N4771   1.432       .  S
N4771      H4775   1.045       .  S
N4771      H4776   1.046       .  S
N4774      H4777   1.046       .  S
N4774      H4778   1.046       .  S
C4779      C4780   1.404       .  A
C4779      C4784   1.399       .  A
C4779      H4786   1.083       .  S
C4780      C4781   1.413       .  A
C4781      C4782   1.392       .  A
C4781      N4788   1.432       .  S
C4782      C4783   1.400       .  A
C4782      H4787   1.084       .  S
C4783      C4784   1.410       .  A
C4784      N4785   1.438       .  S
N4785      H4789   1.045       .  S
N4785      H4790   1.046       .  S
N4788      H4791   1.046       .  S
N4788      H4792   1.042       .  S
C4793      C4794   1.418       .  A
C4793      C4798   1.411   1_565  A
C4793      H4800   1.083       .  S
C4794      C4795   1.400       .  A
C4795      C4796   1.405   1_565  A
C4795      N4802   1.432       .  S
C4796      C4797   1.419       .  A
C4796      H4801   1.083       .  S
C4797      C4798   1.401       .  A
C4798      N4799   1.431       .  S
N4799      H4803   1.046       .  S
N4799      H4804   1.046       .  S
N4802      H4805   1.045       .  S
N4802      H4806   1.047       .  S
C4807      C4808   1.403       .  A
C4807      C4812   1.400   1_565  A
C4807      H4814   1.084       .  S
C4808      C4809   1.409       .  A
C4809      C4810   1.393       .  A
C4809      N4816   1.433       .  S
C4810      C4811   1.399   1_565  A
C4810      H4815   1.081       .  S
C4811      C4812   1.409       .  A
C4812      N4813   1.432       .  S
N4813      H4817   1.046       .  S
N4813      H4818   1.046       .  S
N4816      H4819   1.046       .  S
N4816      H4820   1.046       .  S
C4821      C4822   1.399       .  A
C4821      C4826   1.392       .  A
C4821      H4828   1.084       .  S
C4822      C4823   1.414       .  A
C4823      C4824   1.400       .  A
C4823      N4830   1.438       .  S
C4824      C4825   1.401       .  A
C4824      H4829   1.084       .  S
C4825      C4826   1.407       .  A
C4826      N4827   1.433       .  S
N4827      H4831   1.046       .  S
N4827      H4832   1.046       .  S
N4830      H4833   1.046       .  S
N4830      H4834   1.046       .  S
C4835      C4836   1.419       .  A
C4835      C4840   1.410       .  A
C4835      H4842   1.083       .  S
C4836      C4837   1.407       .  A
C4837      C4838   1.418       .  A
C4837      N4844   1.437       .  S
C4838      C4839   1.421       .  A
C4838      H4843   1.083       .  S
C4839      C4840   1.402       .  A
C4840      N4841   1.431       .  S
N4841      H4845   1.046       .  S
N4841      H4846   1.045       .  S
N4844      H4847   1.046       .  S
N4844      H4848   1.046       .  S
