geometry optimzed in LAMMPS
_audit_creation_date              2020-11-30 
_audit_creation_method            'lammps2cif' 
_symmetry_space_group_name_H-M    'P1' 
_symmetry_Int_Tables_number       1 
_symmetry_cell_setting            triclinic 
loop_ 
_symmetry_equiv_pos_as_xyz 
  x,y,z 
_cell_length_a                    39.58339122 
_cell_length_b                    38.36162098649464 
_cell_length_c                    29.54958103200593 
_cell_angle_alpha                 89.91256291593382 
_cell_angle_beta                  89.61293897483472 
_cell_angle_gamma                 89.94976185815541 
loop_ 
_atom_site_label 
_atom_site_type_symbol 
_atom_site_fract_x 
_atom_site_fract_y 
_atom_site_fract_z 
_atom_site_charge 
O1          O  0.26074420  0.18896331  0.37022397    -0.85900
O2          O  0.26186788  0.19052098  0.62856855    -0.86100
O3          O  0.32308454  0.15860896  0.50318355    -0.87800
O4          O  0.21558743  0.14592422  0.50508193    -0.86500
O5          O  0.17133610  0.18444254  0.50408735    -0.86100
O6          O  0.35977906  0.20466755  0.49909245    -0.87500
O7          O  0.26396386  0.15135649  0.57058031    -0.85900
O8          O  0.26577698  0.15006230  0.42827994    -0.85500
Zr9        Zr  0.26546092  0.18144377  0.49893315     2.84300
O10         O  0.22866395  0.21268111  0.54592761    -1.07500
O11         O  0.29472867  0.21858207  0.45002348    -1.08200
C12         C  0.26362890  0.15717161  0.38586375     1.07200
C13         C  0.26320296  0.15866982  0.61299359     1.07100
C14         C  0.35300246  0.17202340  0.50280624     1.10100
C15         C  0.18406673  0.15362834  0.50708160     1.07900
H16         H  0.31050716  0.20581390  0.56433679     0.33500
O17         O  0.29501477  0.21912412  0.54603661    -1.28500
H18         H  0.21408051  0.19507978  0.43439999     0.33100
O19         O  0.22756538  0.21126815  0.45159913    -1.30100
O20         O  0.25240773  0.31086957  0.62789497    -0.85900
O21         O  0.25228004  0.30925270  0.36815376    -0.87400
O22         O  0.35357224  0.25869009  0.57010095    -0.86000
O23         O  0.16166814  0.24099787  0.56835179    -0.86000
O24         O  0.16109774  0.24517634  0.42950095    -0.85800
O25         O  0.35234606  0.25880201  0.42257834    -0.85600
O26         O  0.30506147  0.35332341  0.49877756    -0.85900
O27         O  0.19461688  0.34129809  0.50735528    -0.85400
O28         O  0.34807494  0.31382825  0.50094765    -0.86500
O29         O  0.15793378  0.29508379  0.50712735    -0.85600
O30         O  0.31536247  0.25470807  0.62890929    -0.86000
O31         O  0.31333458  0.25246424  0.36566791    -0.85700
O32         O  0.19804145  0.24583450  0.36972543    -0.85400
O33         O  0.19894695  0.24338577  0.62712104    -0.85800
O34         O  0.25218994  0.35005813  0.56929948    -0.86100
O35         O  0.24923150  0.34877820  0.42646352    -0.87400
Zr36       Zr  0.25796227  0.25040879  0.59455009     2.83100
Zr37       Zr  0.25676281  0.24950969  0.40266632     2.83500
Zr38       Zr  0.32479095  0.25621176  0.49716903     2.84100
Zr39       Zr  0.19247942  0.24374541  0.49894175     2.83400
Zr40       Zr  0.25251972  0.31917623  0.49835323     2.84200
O41         O  0.22131388  0.28215483  0.45125085    -1.08000
O42         O  0.28868004  0.28755712  0.54514895    -1.07500
C43         C  0.25101859  0.34269223  0.61175273     1.07200
C44         C  0.24957736  0.34092162  0.38410376     1.09800
C45         C  0.34601139  0.25752563  0.61277159     1.07300
C46         C  0.16836939  0.24059740  0.61067172     1.07700
C47         C  0.16742390  0.24492235  0.38681008     1.07300
C48         C  0.34405239  0.25626317  0.38036226     1.06800
C49         C  0.33675968  0.34517200  0.50074032     1.07300
C50         C  0.16484251  0.32763068  0.51087078     1.06800
H51         H  0.30111330  0.30326235  0.43177188     0.33400
O52         O  0.28810648  0.28731388  0.45019826    -1.29100
H53         H  0.20694980  0.29452188  0.56496619     0.33500
O54         O  0.22234724  0.28150688  0.54594901    -1.30500
N55         N  0.46052431  0.50752805  0.53136641    -0.36000
N56         N  0.00445936  0.44816624  0.54487779    -0.56600
N57         N  0.06216477  0.49364872  0.55211329    -0.36000
N58         N  0.01755035  0.05316705  0.53585757    -0.56600
C59         C  0.44056107  0.48133232  0.51708122     0.27500
C60         C  0.44721962  0.03740597  0.51509916     0.27600
C61         C  0.07788556  0.46263696  0.54670382     0.27500
C62         C  0.08485227  0.01854858  0.54085368     0.27500
C63         C  0.47414003  0.43224131  0.54791474     0.36200
C64         C  0.02787321  0.42457435  0.55758331     0.36200
C65         C  0.49297378  0.07750782  0.53685482     0.36200
C66         C  0.04658113  0.07001243  0.54458706     0.36200
C67         C  0.41436082  0.49471971  0.49132593    -0.21300
C68         C  0.41822458  0.03024822  0.49081741    -0.21300
C69         C  0.11137558  0.46801399  0.53432327    -0.21300
C70         C  0.11575037  0.00333332  0.53050442    -0.21300
C71         C  0.47829689  0.39844369  0.56381736    -0.22400
C72         C  0.01251815  0.39342616  0.56928662    -0.22400
C73         C  0.50626837  0.11000732  0.54641455    -0.22400
C74         C  0.04042655  0.10525727  0.55116557    -0.22400
C75         C  0.44392476  0.44608415  0.52982512    -0.17700
C76         C  0.45939677  0.07106145  0.52434080    -0.17700
C77         C  0.07879149  0.05472271  0.54102589    -0.17700
C78         C  0.06293285  0.42954925  0.55250693    -0.17700
H79         H  0.39401154  0.48046600  0.47556582     0.15200
H80         H  0.40160907  0.04869427  0.47438995     0.15200
H81         H  0.13063284  0.44855748  0.52788429     0.15200
H82         H  0.13905883  0.01627649  0.52112796     0.15200
H83         H  0.45892173  0.37887632  0.56865600     0.13500
H84         H  0.02479596  0.36944046  0.57933650     0.13500
H85         H  0.49293519  0.13461987  0.54812257     0.13500
H86         H  0.05875676  0.12556178  0.55742524     0.13500
H87         H  0.47945301  0.50561226  0.55550639     0.26700
H88         H  0.03808224  0.49775420  0.56527350     0.26700
O89         O  0.49064042  0.43594387  0.86988370    -0.85900
O90         O  0.49327022  0.43665909  0.12839399    -0.86100
O91         O  0.05483992  0.40722302  0.99300770    -0.87800
O92         O  0.44761786  0.39170643  0.99780516    -0.86500
O93         O  0.40225509  0.42882761  0.99862036    -0.86100
O94         O  0.09027638  0.45424492  0.99668147    -0.87500
O95         O  0.49843238  0.39775718  0.06960906    -0.85900
O96         O  0.49793645  0.39706172  0.92767214    -0.85500
Zr97       Zr  0.49692939  0.42844605  0.99843223     2.84300
O98         O  0.45969482  0.45833005  0.04669910    -1.07500
O99         O  0.02596437  0.46643331  0.95041698    -1.08200
C100        C  0.49378416  0.40414955  0.88551536     1.07200
C101        C  0.49668535  0.40514001  0.11203906     1.07100
C102        C  0.08430055  0.42151508  0.99325417     1.10100
C103        C  0.41584459  0.39828904  0.99717069     1.07900
H104        H  0.04209198  0.45270336  0.06437418     0.33500
O105        O  0.02606741  0.46589720  0.04673310    -1.28500
H106        H  0.44618828  0.44234987  0.93412690     0.33100
O107        O  0.45921574  0.45852935  0.95184334    -1.30100
O108        O  0.48610378  0.05748456  0.12790347    -0.85900
O109        O  0.48692257  0.05625356  0.86696360    -0.87400
O110        O  0.08533642  0.50636963  0.06817958    -0.86000
O111        O  0.39291027  0.48763414  0.07137702    -0.86000
O112        O  0.39196973  0.98787855  0.92960902    -0.85800
O113        O  0.08363451  0.00599547  0.92756478    -0.85600
O114        O  0.03034531  0.10128688  0.99818026    -0.85900
O115        O  0.42292937  0.08695014  0.99514627    -0.85400
O116        O  0.07529307  0.06378469  0.00103564    -0.86500
O117        O  0.38721978  0.03997832  0.99742530    -0.85600
O118        O  0.04762940  0.50335324  0.12716703    -0.86000
O119        O  0.04672729  0.00244140  0.86852385    -0.85700
O120        O  0.42922335  0.99346649  0.87018342    -0.85400
O121        O  0.43050243  0.49263106  0.12978942    -0.85800
O122        O  0.48099061  0.09617829  0.06958006    -0.86100
O123        O  0.47933277  0.09455293  0.92516777    -0.87400
Zr124      Zr  0.48882131  0.49699870  0.09505141     2.83100
Zr125      Zr  0.48831009  0.99665365  0.90234400     2.83500
Zr126      Zr  0.05419218  0.50463099  0.99868886     2.84100
Zr127      Zr  0.42256318  0.48867717  0.99994216     2.83400
Zr128      Zr  0.48034502  0.06520343  0.99806007     2.84200
O129        O  0.45108192  0.02693681  0.95128931    -1.08000
O130        O  0.01738959  0.03528331  0.04554797    -1.07500
C131        C  0.48367285  0.08926999  0.11210189     1.07200
C132        C  0.48392505  0.08789007  0.88284005     1.09800
C133        C  0.07838153  0.50603072  0.11070093     1.07300
C134        C  0.39989434  0.48932786  0.11377208     1.07700
C135        C  0.39865315  0.99005707  0.88702352     1.07300
C136        C  0.07717275  0.00574414  0.88508823     1.06800
C137        C  0.06208012  0.09440891  0.99990662     1.07300
C138        C  0.39342894  0.07281687  0.99485376     1.06800
H139        H  0.03082528  0.05120673  0.93305243     0.33400
O140        O  0.01769173  0.03493916  0.95087731    -1.29100
H141        H  0.43548117  0.04094465  0.06470614     0.33500
O142        O  0.45130359  0.02752348  0.04681590    -1.30500
N143        N  0.18784611  0.25550237  0.98087845    -0.36000
N144        N  0.24714377  0.29988218  0.97393809    -0.56600
N145        N  0.28934807  0.23898484  0.97560435    -0.36000
N146        N  0.23017981  0.19451107  0.98497807    -0.56600
C147        C  0.17377635  0.28713512  0.98762323     0.27500
C148        C  0.16487060  0.23147367  0.99431329     0.27600
C149        C  0.31263045  0.26386030  0.98396226     0.27500
C150        C  0.30341835  0.20826591  0.98721600     0.27500
C151        C  0.22330376  0.32443402  0.96762972     0.36200
C152        C  0.27717893  0.31571115  0.96755170     0.36200
C153        C  0.19996387  0.17845175  0.98302056     0.36200
C154        C  0.25368381  0.16970762  0.97763499     0.36200
C155        C  0.14126160  0.28310929  0.00482972    -0.21300
C156        C  0.13565351  0.24796021  0.00898300    -0.21300
C157        C  0.34202150  0.24859149  0.99995626    -0.21300
C158        C  0.33609405  0.21353888  0.00239449    -0.21300
C159        C  0.23817432  0.35611971  0.95693008    -0.22400
C160        C  0.27243732  0.35063405  0.95717688    -0.22400
C161        C  0.20427849  0.14308250  0.97512058    -0.22400
C162        C  0.23845708  0.13757688  0.97137223    -0.22400
C163        C  0.18870154  0.31955585  0.97669399    -0.17700
C164        C  0.16872184  0.19505080  0.99090547    -0.17700
C165        C  0.28865487  0.17524945  0.98125033    -0.17700
C166        C  0.30859188  0.29985754  0.97610315    -0.17700
H167        H  0.12323934  0.30336679  0.01321648     0.15200
H168        H  0.11256334  0.23593323  0.02106152     0.15200
H169        H  0.36548311  0.26122408  0.00880690     0.15200
H170        H  0.35403203  0.19407537  0.01355053     0.15200
H171        H  0.22570242  0.38086757  0.95137612     0.13500
H172        H  0.29157967  0.37033139  0.95173484     0.13500
H173        H  0.18490434  0.12327680  0.97285254     0.13500
H174        H  0.25072237  0.11267939  0.96600562     0.13500
H175        H  0.21011319  0.25067525  0.96326030     0.26700
H176        H  0.26684170  0.24210503  0.95818009     0.26700
C177        C  0.03726568  0.24861182  0.28206750     0.87100
C178        C  0.03308291  0.21618111  0.25213646    -0.53200
C179        C  0.50386124  0.21441550  0.22784986     0.10000
C180        C  0.48097595  0.24716742  0.23457547     0.20900
C181        C  0.03236011  0.27988559  0.25013891    -0.53900
C182        C  0.50379961  0.27936426  0.22468898     0.10100
C183        C  0.50389158  0.25019296  0.31081353    -0.53400
C184        C  0.47438679  0.24887001  0.28624147     0.10700
H185        H  0.05198220  0.19565244  0.25090850     0.15200
H186        H  0.45740822  0.24680095  0.21446227     0.00900
H187        H  0.04894896  0.30233783  0.24948627     0.15500
H188        H  0.50344791  0.25368952  0.34721009     0.15300
C189        C  0.20706971  0.49971908  0.21709792     0.87100
C190        C  0.21179547  0.46730328  0.24715663    -0.53200
C191        C  0.24063862  0.46674359  0.27222422     0.10000
C192        C  0.26367856  0.49885001  0.26382108     0.20900
C193        C  0.21175992  0.03109858  0.24869954    -0.53900
C194        C  0.24139708  0.03200457  0.27218066     0.10100
C195        C  0.24009515  0.49868252  0.18808098    -0.53400
C196        C  0.26987663  0.49828717  0.21217593     0.10700
H197        H  0.19506760  0.44496628  0.24678343     0.15200
H198        H  0.28725653  0.49785113  0.28376036     0.00900
H199        H  0.19308100  0.05178392  0.25107494     0.15500
H200        H  0.23999811  0.49666070  0.15151797     0.15300
C201        C  0.03826566  0.24505563  0.71307071     0.87100
C202        C  0.03453928  0.27696011  0.74417869    -0.53200
C203        C  0.50551862  0.27880140  0.76899587     0.10000
C204        C  0.48214104  0.24657824  0.76063550     0.20900
C205        C  0.03307615  0.21328361  0.74318704    -0.53900
C206        C  0.50418047  0.21300081  0.76744774     0.10100
C207        C  0.50541659  0.24748250  0.68429325    -0.53400
C208        C  0.47563172  0.24800213  0.70907025     0.10700
H209        H  0.05277248  0.29797116  0.74440108     0.15200
H210        H  0.45854803  0.24707107  0.78084301     0.00900
H211        H  0.05106121  0.19187445  0.74443068     0.15500
H212        H  0.50560154  0.24970831  0.64772106     0.15300
C213        C  0.20697828  0.50299545  0.78159315     0.87100
C214        C  0.21313590  0.03360174  0.74977655    -0.53200
C215        C  0.24315761  0.03340532  0.72684241     0.10000
C216        C  0.26418865  0.49947209  0.73584564     0.20900
C217        C  0.21080597  0.47007973  0.75220531    -0.53900
C218        C  0.24008600  0.46793635  0.72773581     0.10100
C219        C  0.23925210  0.50116364  0.81119707    -0.53400
C220        C  0.26937800  0.49935887  0.78770839     0.10700
H221        H  0.19516466  0.05491404  0.74696994     0.15200
H222        H  0.28818828  0.49761999  0.71646162     0.00900
H223        H  0.19238359  0.44915374  0.75176594     0.15500
H224        H  0.23845684  0.49983293  0.84775807     0.15300
C225        C  0.10923581  0.50796849  0.14131017    -0.04800
C226        C  0.11081857  0.99000456  0.18275831    -0.01900
C227        C  0.14130101  0.98861821  0.20828280     0.03100
C228        C  0.17240753  0.50254817  0.19101630    -0.04800
C229        C  0.16953106  0.52399687  0.15183240    -0.01900
C230        C  0.13894513  0.52603392  0.12702994     0.03100
C231        C  0.08111615  0.97152555  0.19893816     0.37800
C232        C  0.19764936  0.54542610  0.13667386     0.37700
C233        C  0.13894357  0.54713636  0.08616774     0.36200
C234        C  0.13893377  0.97470027  0.25378403     0.36200
N235        N  0.14052728  0.56378274  0.05355121    -0.38700
N236        N  0.13620180  0.96334674  0.28993412    -0.38700
N237        N  0.21977548  0.56228111  0.12317134    -0.38100
N238        N  0.05735766  0.95670428  0.21143739    -0.38100
C239        C  0.30457177  0.49408565  0.19025313    -0.04800
C240        C  0.30978099  0.46885429  0.15596584    -0.01900
C241        C  0.34115901  0.46632768  0.13289247     0.03100
C242        C  0.36903533  0.48797141  0.14454783    -0.04800
C243        C  0.36449933  0.01189363  0.18070352    -0.01900
C244        C  0.33263217  0.01498549  0.20319037     0.03100
C245        C  0.28336037  0.44382639  0.14563065     0.37800
C246        C  0.39167948  0.03543205  0.19254125     0.37700
C247        C  0.32880249  0.04084437  0.23852159     0.36200
C248        C  0.34375815  0.44182254  0.09567940     0.36200
N249        N  0.32659609  0.06150518  0.26687552    -0.38700
N250        N  0.34454383  0.42280071  0.06537376    -0.38700
N251        N  0.41308387  0.05455593  0.20202418    -0.38100
N252        N  0.26252462  0.42366993  0.13750122    -0.38100
C253        C  0.49768345  0.30877363  0.19158928    -0.04800
C254        C  0.02166405  0.31487717  0.15705125    -0.01900
C255        C  0.02216406  0.34675030  0.13294132     0.03100
C256        C  0.49862471  0.37363012  0.14271292    -0.04800
C257        C  0.47341142  0.36683186  0.17578580    -0.01900
C258        C  0.47212707  0.33407192  0.19856371     0.03100
C259        C  0.04491686  0.28716927  0.14443616     0.37800
C260        C  0.44800704  0.39309170  0.18539748     0.37700
C261        C  0.44292437  0.32559200  0.22601635     0.36200
C262        C  0.04761970  0.35150497  0.09793900     0.36200
N263        N  0.41838416  0.31928780  0.24583570    -0.38700
N264        N  0.06785303  0.35441154  0.06977553    -0.38700
N265        N  0.42772448  0.41406544  0.19303039    -0.38100
N266        N  0.06285058  0.26476054  0.13371916    -0.38100
C267        C  0.49539075  0.18245097  0.19952118    -0.04800
C268        C  0.49799294  0.14827018  0.21783770    -0.01900
C269        C  0.49405118  0.11811572  0.19023680     0.03100
C270        C  0.48510731  0.12108567  0.14380185    -0.04800
C271        C  0.47893201  0.15571134  0.12712533    -0.01900
C272        C  0.48534524  0.18567942  0.15403790     0.03100
C273        C  0.50259453  0.14381381  0.26616920     0.37800
C274        C  0.46483461  0.16158343  0.08249609     0.37700
C275        C  0.48212263  0.22003837  0.13391761     0.36200
C276        C  0.49936262  0.08414715  0.21058861     0.36200
N277        N  0.47917652  0.24707090  0.11696692    -0.38700
N278        N  0.50369874  0.05720259  0.22726535    -0.38700
N279        N  0.45334813  0.16691297  0.04723053    -0.38100
N280        N  0.50557835  0.13981009  0.30474835    -0.38100
C281        C  0.11366621  0.39863366  0.98780722    -0.04800
C282        C  0.12036854  0.38353738  0.94520147    -0.01900
C283        C  0.14644116  0.35892905  0.94069744     0.03100
C284        C  0.16645406  0.35053722  0.97841125    -0.04800
C285        C  0.16205495  0.36841832  0.01968965    -0.01900
C286        C  0.13516314  0.39204999  0.02471247     0.03100
C287        C  0.10068369  0.39369411  0.90604027     0.37800
C288        C  0.18461351  0.36158188  0.05718220     0.37700
C289        C  0.12856429  0.40811024  0.06833062     0.36200
C290        C  0.15223741  0.34157589  0.89774799     0.36200
N291        N  0.12309808  0.42050519  0.10330822    -0.38700
N292        N  0.15689312  0.32769897  0.86351806    -0.38700
N293        N  0.20291136  0.35630108  0.08680113    -0.38100
N294        N  0.08523080  0.40218846  0.87478592    -0.38100
C295        C  0.33861293  0.32260325  0.98135856    -0.04800
C296        C  0.35567032  0.33554079  0.94282218    -0.01900
C297        C  0.38275749  0.35879405  0.94811249     0.03100
C298        C  0.39287448  0.36869701  0.99190082    -0.04800
C299        C  0.37832593  0.35281054  0.03021834    -0.01900
C300        C  0.35035191  0.33073991  0.02513427     0.03100
C301        C  0.34448664  0.32595494  0.89789017     0.37800
C302        C  0.39222673  0.35896684  0.07469929     0.37700
C303        C  0.33342235  0.31663691  0.06485657     0.36200
C304        C  0.39920898  0.37376315  0.90857438     0.36200
N305        N  0.31997376  0.30517148  0.09642234    -0.38700
N306        N  0.41200835  0.38591329  0.87697054    -0.38700
N307        N  0.40328568  0.36326634  0.11036194    -0.38100
N308        N  0.33544206  0.31843819  0.86205059    -0.38100
C309        C  0.36445427  0.09631677  0.98984109    -0.04800
C310        C  0.36128867  0.11612788  0.94983765    -0.01900
C311        C  0.33503406  0.14048603  0.94586792     0.03100
C312        C  0.31183954  0.14495340  0.98187195    -0.04800
C313        C  0.31452324  0.12460861  0.02147408    -0.01900
C314        C  0.34077631  0.10012920  0.02536675     0.03100
C315        C  0.38546249  0.11205155  0.91307630     0.37800
C316        C  0.29182832  0.13086410  0.05941737     0.37700
C317        C  0.34475003  0.08075051  0.06713073     0.36200
C318        C  0.33325877  0.16274587  0.90612739     0.36200
N319        N  0.34777202  0.06567388  0.10077936    -0.38700
N320        N  0.33217840  0.18090277  0.87485125    -0.38700
N321        N  0.27371069  0.13621637  0.08952142    -0.38100
N322        N  0.40465203  0.10912241  0.88363009    -0.38100
C323        C  0.08560551  0.12384702  0.99882048    -0.04800
C324        C  0.10059578  0.13566048  0.03909939    -0.01900
C325        C  0.12738984  0.15971848  0.03688840     0.03100
C326        C  0.13808324  0.17287947  0.99450546    -0.04800
C327        C  0.12082395  0.16345880  0.95478506    -0.01900
C328        C  0.09517248  0.13824566  0.95677846     0.03100
C329        C  0.08878944  0.12259456  0.08255264     0.37800
C330        C  0.12992838  0.17931169  0.91181112     0.37700
C331        C  0.07989342  0.12574774  0.91536471     0.36200
C332        C  0.14419452  0.17056354  0.07797477     0.36200
N333        N  0.06804866  0.11548197  0.88227626    -0.38700
N334        N  0.15741663  0.17915280  0.11093701    -0.38700
N335        N  0.13693439  0.19221790  0.87759811    -0.38100
N336        N  0.07931784  0.11222240  0.11718505    -0.38100
C337        C  0.36755507  0.98917643  0.85693143    -0.04800
C338        C  0.36321781  0.01310418  0.82092276    -0.01900
C339        C  0.33171798  0.01624967  0.79818683     0.03100
C340        C  0.30346429  0.49529326  0.81069094    -0.04800
C341        C  0.30781340  0.47089703  0.84626941    -0.01900
C342        C  0.33910863  0.46793784  0.86908427     0.03100
C343        C  0.39004714  0.03715685  0.80973801     0.37800
C344        C  0.28018392  0.44793788  0.85945382     0.37700
C345        C  0.34106704  0.44356454  0.90650487     0.36200
C346        C  0.32797933  0.04328105  0.76426814     0.36200
N347        N  0.34103765  0.42460869  0.93695232    -0.38700
N348        N  0.32608146  0.06529442  0.73759943    -0.38700
N349        N  0.25833686  0.42946164  0.86980569    -0.38100
N350        N  0.41079658  0.05713902  0.80055873    -0.38100
C351        C  0.17211181  0.50698979  0.80651672    -0.04800
C352        C  0.14129442  0.49580802  0.78625513    -0.01900
C353        C  0.11051994  0.49504497  0.81129729     0.03100
C354        C  0.10840096  0.00957070  0.85507834    -0.04800
C355        C  0.13780130  0.02680238  0.87173740    -0.01900
C356        C  0.16890260  0.02591226  0.84764542     0.03100
C357        C  0.13990003  0.48746512  0.73844907     0.37800
C358        C  0.13691163  0.04593402  0.91416124     0.37700
C359        C  0.19661017  0.04676103  0.86481921     0.36200
C360        C  0.08162118  0.47782417  0.79188846     0.36200
N361        N  0.21823171  0.06327577  0.87993127    -0.38700
N362        N  0.05915357  0.46358331  0.77543023    -0.38700
N363        N  0.13741902  0.06090981  0.94809264    -0.38100
N364        N  0.13781254  0.48092259  0.70036264    -0.38100
C365        C  0.48746025  0.11997725  0.85197369    -0.04800
C366        C  0.99549150  0.15338361  0.87082037    -0.01900
C367        C  0.00313085  0.18221619  0.84272974     0.03100
C368        C  0.49616751  0.18153085  0.79636927    -0.04800
C369        C  0.48788579  0.14889082  0.77677543    -0.01900
C370        C  0.48502218  0.11818231  0.80391771     0.03100
C371        C  0.99788349  0.15911375  0.91921456     0.37800
C372        C  0.48410515  0.14640491  0.72806207     0.37700
C373        C  0.48111643  0.08489982  0.78144125     0.36200
C374        C  0.02311391  0.21074587  0.86055863     0.36200
N375        N  0.47868115  0.05853517  0.76272762    -0.38700
N376        N  0.03989571  0.23288895  0.87454882    -0.38700
N377        N  0.48104040  0.14402623  0.68926765    -0.38100
N378        N  0.99950032  0.16448356  0.95766049    -0.38100
C379        C  0.49248396  0.37252755  0.85395290    -0.04800
C380        C  0.98533100  0.33828054  0.87089152    -0.01900
C381        C  0.98533846  0.30874807  0.84188646     0.03100
C382        C  0.49724689  0.31131784  0.79680120    -0.04800
C383        C  0.50288843  0.34558312  0.77932623    -0.01900
C384        C  0.49802387  0.37562221  0.80674767     0.03100
C385        C  0.97672565  0.33237739  0.91814951     0.37800
C386        C  0.51355139  0.35093077  0.73278775     0.37700
C387        C  0.49637490  0.40948302  0.78511613     0.36200
C388        C  0.97177842  0.27613671  0.85883605     0.36200
N389        N  0.49343757  0.43617670  0.76729000    -0.38700
N390        N  0.95947539  0.25103555  0.87313605    -0.38700
N391        N  0.52322605  0.35641438  0.69643730    -0.38100
N392        N  0.97007463  0.32650498  0.95559231    -0.38100
C393        C  0.44064911  0.25257024  0.68823498    -0.04800
C394        C  0.43468835  0.27895136  0.65553275    -0.01900
C395        C  0.40262833  0.28263766  0.63498213     0.03100
C396        C  0.37601485  0.25907026  0.64429547    -0.04800
C397        C  0.38066219  0.23480093  0.67976856    -0.01900
C398        C  0.41254419  0.23167241  0.70171033     0.03100
C399        C  0.46120144  0.30313651  0.64284466     0.37800
C400        C  0.35268027  0.21288297  0.69386212     0.37700
C401        C  0.41597373  0.20623352  0.73760147     0.36200
C402        C  0.39634542  0.31253358  0.60633951     0.36200
N403        N  0.41755240  0.18614652  0.76675662    -0.38700
N404        N  0.39159791  0.33715273  0.58476402    -0.38700
N405        N  0.33031520  0.19565208  0.70572214    -0.38100
N406        N  0.48192624  0.32246123  0.63124224    -0.38100
C407        C  0.07311240  0.24209997  0.68797668    -0.04800
C408        C  0.10399706  0.25365062  0.70812811    -0.01900
C409        C  0.13501063  0.25331718  0.68356915     0.03100
C410        C  0.13718895  0.23735081  0.64065512    -0.04800
C411        C  0.10767964  0.21998368  0.62446468    -0.01900
C412        C  0.07648604  0.22180059  0.64816422     0.03100
C413        C  0.10528212  0.26272528  0.75572162     0.37800
C414        C  0.10845384  0.19964811  0.58309694     0.37700
C415        C  0.04867789  0.20021522  0.63275925     0.36200
C416        C  0.16434869  0.27040903  0.70250616     0.36200
N417        N  0.02683717  0.18279679  0.62009873    -0.38700
N418        N  0.18756493  0.28435814  0.71769937    -0.38700
N419        N  0.10721112  0.18353531  0.55012011    -0.38100
N420        N  0.10641567  0.26985683  0.79373173    -0.38100
C421        C  0.26305259  0.12713251  0.64481206    -0.04800
C422        C  0.27185586  0.09301095  0.62860591    -0.01900
C423        C  0.26649906  0.06272688  0.65545907     0.03100
C424        C  0.25393559  0.06546155  0.69998551    -0.04800
C425        C  0.24952163  0.09954076  0.71821328    -0.01900
C426        C  0.25253533  0.12977798  0.69064495     0.03100
C427        C  0.28682803  0.08813175  0.58413157     0.37800
C428        C  0.24326434  0.10404673  0.76623971     0.37700
C429        C  0.24329757  0.16332880  0.70973226     0.36200
C430        C  0.27372107  0.02862104  0.63655151     0.36200
N431        N  0.23560424  0.18996304  0.72503910    -0.38700
N432        N  0.28000144  0.00166791  0.62107255    -0.38700
N433        N  0.23868789  0.10855778  0.80447754    -0.38100
N434        N  0.29878762  0.08381322  0.54876284    -0.38100
C435        C  0.24768888  0.37431498  0.64278719    -0.04800
C436        C  0.26434596  0.37598061  0.68504110    -0.01900
C437        C  0.26478290  0.40749863  0.71056112     0.03100
C438        C  0.24599726  0.43709242  0.69676445    -0.04800
C439        C  0.22829396  0.43518312  0.65563513    -0.01900
C440        C  0.23027614  0.40504299  0.62800715     0.03100
C441        C  0.28204773  0.34563250  0.70215424     0.37800
C442        C  0.20822331  0.46484783  0.64105788     0.37700
C443        C  0.21489770  0.40701171  0.58360552     0.36200
C444        C  0.28604527  0.40935232  0.74999623     0.36200
N445        N  0.20325976  0.40998456  0.54798258    -0.38700
N446        N  0.30454777  0.40915109  0.78008270    -0.38700
N447        N  0.19230724  0.48841729  0.62912952    -0.38100
N448        N  0.29596773  0.32149782  0.71643011    -0.38100
C449        C  0.38188938  0.14823192  0.50897403    -0.04800
C450        C  0.40519019  0.14250633  0.47339497    -0.01900
C451        C  0.43186081  0.11859155  0.47903020     0.03100
C452        C  0.43527643  0.10055532  0.52034929    -0.04800
C453        C  0.41341488  0.10804296  0.55689649    -0.01900
C454        C  0.38668053  0.13177978  0.55121379     0.04500
C455        C  0.40112915  0.16027812  0.43052338     0.37800
C456        C  0.41840915  0.09101462  0.60023959     0.37700
C457        C  0.36439585  0.13953332  0.58904848     0.36200
C458        C  0.45523390  0.11179777  0.44205260     0.36200
N459        N  0.34685224  0.14557497  0.61951181    -0.38700
N460        N  0.47388399  0.10649809  0.41252091    -0.38700
N461        N  0.42260066  0.07749709  0.63479072    -0.38100
N462        N  0.39817653  0.17430542  0.39612935    -0.38100
C463        C  0.10778415  0.07808088  0.53235401    -0.04800
C464        C  0.11723928  0.08588290  0.48731994    -0.01900
C465        C  0.14403056  0.10899714  0.47884914     0.03100
C466        C  0.16035285  0.12512218  0.51541177    -0.04800
C467        C  0.15170606  0.11632953  0.56043803    -0.01900
C468        C  0.12560190  0.09241597  0.56887631     0.03100
C469        C  0.09888464  0.07058095  0.44993462     0.37800
C470        C  0.16830963  0.13330225  0.59806963     0.37700
C471        C  0.11624999  0.08329069  0.61496490     0.36200
C472        C  0.15459587  0.11651216  0.43273295     0.36200
N473        N  0.10864209  0.07588163  0.65161817    -0.38700
N474        N  0.16318089  0.12233964  0.39597486    -0.38700
N475        N  0.18098954  0.14702698  0.62836274    -0.38100
N476        N  0.08402413  0.05833452  0.42035530    -0.38100
C477        C  0.13639938  0.35075018  0.52254876    -0.04800
C478        C  0.11345819  0.36124687  0.48903304    -0.01900
C479        C  0.08846861  0.38609338  0.49943990     0.03100
C480        C  0.08489015  0.39867670  0.54416317    -0.04800
C481        C  0.10587253  0.38564768  0.57864538    -0.01900
C482        C  0.13162907  0.36161561  0.56782682     0.03100
C483        C  0.11571263  0.34665281  0.44383864     0.37800
C484        C  0.10165601  0.39792968  0.62474458     0.37700
C485        C  0.15275509  0.34749346  0.60334041     0.36200
C486        C  0.06826363  0.40085896  0.46340624     0.36200
N487        N  0.16937499  0.33604116  0.63178717    -0.38700
N488        N  0.05261637  0.41314114  0.43454151    -0.38700
N489        N  0.09827571  0.40769373  0.66154096    -0.38100
N490        N  0.11728131  0.33475118  0.40791817    -0.38100
C491        C  0.36274947  0.37330543  0.50425459    -0.04800
C492        C  0.35709929  0.40268633  0.53243251    -0.01900
C493        C  0.38372518  0.42601600  0.54167722     0.03100
C494        C  0.41535634  0.42195642  0.51994286    -0.04800
C495        C  0.42011276  0.39466892  0.48884130    -0.01900
C496        C  0.39534921  0.36881164  0.48432105     0.03100
C497        C  0.32517890  0.40741266  0.55586479     0.37800
C498        C  0.45095855  0.39277311  0.46197998     0.37700
C499        C  0.40580472  0.33599929  0.46435519     0.36200
C500        C  0.37874959  0.45385703  0.57432259     0.36200
N501        N  0.41543977  0.30951455  0.45070215    -0.38700
N502        N  0.37466736  0.47612938  0.60017205    -0.38700
N503        N  0.47544453  0.39140128  0.44044477    -0.38100
N504        N  0.30006284  0.41193150  0.57516854    -0.38100
C505        C  0.13597298  0.24336349  0.35708556    -0.04800
C506        C  0.13397742  0.26048773  0.31487543    -0.01900
C507        C  0.10320358  0.26099684  0.28979055     0.03100
C508        C  0.07213101  0.24728050  0.30817678    -0.04800
C509        C  0.07538990  0.22733641  0.34860760    -0.01900
C510        C  0.10634231  0.22584551  0.37274162     0.03100
C511        C  0.16352442  0.27849359  0.29722067     0.37800
C512        C  0.04746085  0.20632658  0.36526191     0.37700
C513        C  0.10726548  0.20520528  0.41396591     0.36200
C514        C  0.10546918  0.27349600  0.24363288     0.36200
N515        N  0.10732173  0.18894026  0.44695396    -0.38700
N516        N  0.10888492  0.28387707  0.20711409    -0.38700
N517        N  0.02553213  0.18957758  0.37955419    -0.38100
N518        N  0.18694573  0.29301174  0.28304310    -0.38100
C519        C  0.43925195  0.25164953  0.30722235    -0.04800
C520        C  0.41395147  0.22612973  0.29891817    -0.01900
C521        C  0.38145200  0.22861585  0.31971898     0.03100
C522        C  0.37319352  0.25737321  0.34734927    -0.04800
C523        C  0.39627533  0.28522310  0.34925066    -0.01900
C524        C  0.42991228  0.28121660  0.33329921     0.03100
C525        C  0.42126113  0.19631443  0.27060716     0.37800
C526        C  0.38373889  0.31935048  0.36196350     0.37700
C527        C  0.45446135  0.30811417  0.34316757     0.36200
C528        C  0.35642624  0.20162081  0.31255064     0.36200
N529        N  0.47408112  0.32937342  0.35190742    -0.38700
N530        N  0.33637431  0.18021423  0.30651954    -0.38700
N531        N  0.37322009  0.34673613  0.37054677    -0.38100
N532        N  0.42567629  0.17212521  0.24801425    -0.38100
C533        C  0.24710126  0.43657350  0.30371776    -0.04800
C534        C  0.22488212  0.43155721  0.34056019    -0.01900
C535        C  0.22433914  0.39967929  0.36452888     0.03100
C536        C  0.24686125  0.37206254  0.35302556    -0.04800
C537        C  0.27018865  0.37767141  0.31717128    -0.01900
C538        C  0.27087674  0.41006622  0.29354030     0.03100
C539        C  0.20366346  0.46031403  0.35544558     0.37800
C540        C  0.29421663  0.35059145  0.30521657     0.37700
C541        C  0.29768946  0.41668904  0.26120193     0.36200
C542        C  0.20005894  0.39572577  0.40115833     0.36200
N543        N  0.32039456  0.42118649  0.23706232    -0.38700
N544        N  0.18067940  0.39351984  0.43048253    -0.38700
N545        N  0.31330694  0.32904166  0.29513501    -0.38100
N546        N  0.18737499  0.48354908  0.36776282    -0.38100
C547        C  0.26292941  0.12551945  0.35418267    -0.04800
C548        C  0.27020587  0.09108633  0.37054935    -0.01900
C549        C  0.26356640  0.06096692  0.34405820     0.03100
C550        C  0.25118661  0.06403732  0.29958422    -0.04800
C551        C  0.24762573  0.09825988  0.28140905    -0.01900
C552        C  0.25307522  0.12844792  0.30828853     0.03100
C553        C  0.28567023  0.08573887  0.41438759     0.37800
C554        C  0.23921571  0.10316803  0.23421242     0.37700
C555        C  0.24872225  0.16252941  0.28773109     0.36200
C556        C  0.26903021  0.02669262  0.36357942     0.36200
N557        N  0.24547387  0.18964488  0.27106995    -0.38700
N558        N  0.27389488  0.99969710  0.37983567    -0.38700
N559        N  0.23252847  0.10860362  0.19684327    -0.38100
N560        N  0.29818390  0.08096030  0.44911078    -0.38100
O561        O  0.26080536  0.68892300  0.37015732    -0.85900
O562        O  0.26190075  0.69043093  0.62851224    -0.86100
O563        O  0.32304450  0.65853368  0.50318620    -0.87800
O564        O  0.21559913  0.64588481  0.50503702    -0.86500
O565        O  0.17135323  0.68440589  0.50407214    -0.86100
O566        O  0.35974538  0.70458618  0.49902951    -0.87500
O567        O  0.26405974  0.65128383  0.57050322    -0.85900
O568        O  0.26592659  0.65002212  0.42820043    -0.85500
Zr569      Zr  0.26547934  0.68140294  0.49885622     2.84300
O570        O  0.22870124  0.71261608  0.54588506    -1.07500
O571        O  0.29475136  0.71855345  0.44993490    -1.08200
C572        C  0.26374539  0.65712404  0.38578667     1.07200
C573        C  0.26327796  0.65858103  0.61292433     1.07100
C574        C  0.35295424  0.67194514  0.50280748     1.10100
C575        C  0.18407970  0.65359099  0.50707221     1.07900
H576        H  0.31053942  0.70578951  0.56423846     0.33500
O577        O  0.29504222  0.71909419  0.54593959    -1.28500
H578        H  0.21411477  0.69505270  0.43432824     0.33100
O579        O  0.22759653  0.71124272  0.45152971    -1.30100
O580        O  0.25247669  0.81082611  0.62788074    -0.85900
O581        O  0.25229116  0.80934935  0.36824106    -0.87400
O582        O  0.35358361  0.75871557  0.56996160    -0.86000
O583        O  0.16170219  0.74082723  0.56828948    -0.86000
O584        O  0.16113811  0.74515968  0.42953160    -0.85800
O585        O  0.35240436  0.75895858  0.42252204    -0.85600
O586        O  0.30504835  0.85331557  0.49873487    -0.85900
O587        O  0.19462709  0.84123740  0.50740638    -0.85400
O588        O  0.34808124  0.81384209  0.50077754    -0.86500
O589        O  0.15795374  0.79501909  0.50718120    -0.85600
O590        O  0.31538394  0.75471675  0.62877714    -0.86000
O591        O  0.31338206  0.75261027  0.36562681    -0.85700
O592        O  0.19805087  0.74579068  0.36972673    -0.85400
O593        O  0.19900093  0.74327070  0.62703231    -0.85800
O594        O  0.25226491  0.85003204  0.56930176    -0.86100
O595        O  0.24927690  0.84882952  0.42660004    -0.87400
Zr596      Zr  0.25799851  0.75034447  0.59449944     2.83100
Zr597      Zr  0.25678930  0.74951110  0.40260174     2.83500
Zr598      Zr  0.32481268  0.75619394  0.49706810     2.84100
Zr599      Zr  0.19252403  0.74369704  0.49892493     2.83400
Zr600      Zr  0.25253149  0.81913238  0.49838578     2.84200
O601        O  0.22134346  0.78212445  0.45124257    -1.08000
O602        O  0.28871688  0.78750255  0.54511557    -1.07500
C603        C  0.25110889  0.84265936  0.61174930     1.07200
C604        C  0.24961302  0.84101725  0.38423386     1.09800
C605        C  0.34602029  0.75756486  0.61262637     1.07300
C606        C  0.16842540  0.74044620  0.61059906     1.07700
C607        C  0.16744230  0.74487642  0.38684323     1.07300
C608        C  0.34410205  0.75645599  0.38030869     1.06800
C609        C  0.33675358  0.84518596  0.50060435     1.07300
C610        C  0.16485462  0.82756936  0.51091824     1.06800
H611        H  0.30109450  0.80326772  0.43176099     0.33400
O612        O  0.28809876  0.78730118  0.45017382    -1.29100
H613        H  0.20696101  0.79446211  0.56500586     0.33500
O614        O  0.22235698  0.78146064  0.54597038    -1.30500
N615        N  0.46056745  0.00753371  0.53128259    -0.36000
N616        N  0.00441210  0.94818056  0.54461890    -0.56600
N617        N  0.06212555  0.99364406  0.55169626    -0.36000
N618        N  0.01759935  0.55314857  0.53588927    -0.56600
C619        C  0.44054588  0.98132498  0.51716290     0.27500
C620        C  0.44721205  0.53740551  0.51516499     0.27600
C621        C  0.07783802  0.96263360  0.54625191     0.27500
C622        C  0.08489760  0.51854805  0.54127186     0.27500
C623        C  0.47418659  0.93222120  0.54794042     0.36200
C624        C  0.02783383  0.92458297  0.55727732     0.36200
C625        C  0.49290458  0.57745733  0.53716878     0.36200
C626        C  0.04661093  0.57002011  0.54464610     0.36200
C627        C  0.41425511  0.99470922  0.49156575    -0.21300
C628        C  0.41831184  0.53026127  0.49067204    -0.21300
C629        C  0.11132149  0.96801275  0.53383905    -0.21300
C630        C  0.11580406  0.50333117  0.53097410    -0.21300
C631        C  0.47834929  0.89841005  0.56379264    -0.22400
C632        C  0.01247557  0.89345940  0.56909147    -0.22400
C633        C  0.50619545  0.60992143  0.54692454    -0.22400
C634        C  0.04045788  0.60529852  0.55091733    -0.22400
C635        C  0.44396398  0.94605858  0.52985628    -0.17700
C636        C  0.45933428  0.57104056  0.52460814    -0.17700
C637        C  0.07882674  0.55471975  0.54131750    -0.17700
C638        C  0.06288948  0.92954879  0.55211110    -0.17700
H639        H  0.39384414  0.98045658  0.47594782     0.15200
H640        H  0.40174066  0.54871373  0.47417898     0.15200
H641        H  0.13057816  0.94855632  0.52739585     0.15200
H642        H  0.13911155  0.51627038  0.52158342     0.15200
H643        H  0.45898479  0.87882126  0.56855510     0.13500
H644        H  0.02475153  0.86947529  0.57915297     0.13500
H645        H  0.49284464  0.63451409  0.54885618     0.13500
H646        H  0.05878057  0.62562378  0.55709951     0.13500
H647        H  0.47958048  0.00563236  0.55529762     0.26700
H648        H  0.03806246  0.99774177  0.56492174     0.26700
O649        O  0.49073882  0.93598785  0.86978790    -0.85900
O650        O  0.49304141  0.93664838  0.12839685    -0.86100
O651        O  0.05469064  0.90715345  0.99261211    -0.87800
O652        O  0.44770555  0.89165202  0.99788458    -0.86500
O653        O  0.40233081  0.92875936  0.99866502    -0.86100
O654        O  0.09013668  0.95417065  0.99617521    -0.87500
O655        O  0.49825453  0.89776395  0.06960302    -0.85900
O656        O  0.49807047  0.89712048  0.92758252    -0.85500
Zr657      Zr  0.49700511  0.92843661  0.99841989     2.84300
O658        O  0.45973133  0.95832615  0.04662588    -1.07500
O659        O  0.02586229  0.96644726  0.95038446    -1.08200
C660        C  0.49388936  0.90420122  0.88542413     1.07200
C661        C  0.49643807  0.90513149  0.11203156     1.07100
C662        C  0.08414627  0.92144195  0.99269657     1.10100
C663        C  0.41592492  0.89821695  0.99728303     1.07900
H664        H  0.04211919  0.95270285  0.06427373     0.33500
O665        O  0.02606493  0.96589364  0.04667692    -1.28500
H666        H  0.44627876  0.94230669  0.93408005     0.33100
O667        O  0.45929339  0.95849535  0.95180078    -1.30100
O668        O  0.48608486  0.55749467  0.12790754    -0.85900
O669        O  0.48668407  0.55626689  0.86696365    -0.87400
O670        O  0.08539874  0.00633725  0.06798386    -0.86000
O671        O  0.39291489  0.98777025  0.07129148    -0.86000
O672        O  0.39181359  0.48788524  0.92978186    -0.85800
O673        O  0.08370048  0.50589217  0.92762796    -0.85600
O674        O  0.03034195  0.60127631  0.99826696    -0.85900
O675        O  0.42292309  0.58700745  0.99551909    -0.85400
O676        O  0.07531085  0.56379526  0.00101364    -0.86500
O677        O  0.38720781  0.54003942  0.99787537    -0.85600
O678        O  0.04772269  0.00345310  0.12701020    -0.86000
O679        O  0.04677785  0.50243310  0.86858392    -0.85700
O680        O  0.42905215  0.49342957  0.87032601    -0.85400
O681        O  0.43047348  0.99276608  0.12974601    -0.85800
O682        O  0.48100534  0.59620246  0.06959144    -0.86100
O683        O  0.47908594  0.59454082  0.92519567    -0.87400
Zr684      Zr  0.48878280  0.99700007  0.09503586     2.83100
Zr685      Zr  0.48820799  0.49666413  0.90233649     2.83500
Zr686      Zr  0.05413819  0.00463652  0.99859584     2.84100
Zr687      Zr  0.42260155  0.98864384  0.99985522     2.83400
Zr688      Zr  0.48033093  0.56521927  0.99809280     2.84200
O689        O  0.45101962  0.52696570  0.95134131    -1.08000
O690        O  0.01740548  0.53527860  0.04558963    -1.07500
C691        C  0.48365598  0.58928470  0.11211193     1.07200
C692        C  0.48363609  0.58789453  0.88285683     1.09800
C693        C  0.07847471  0.00607433  0.11051191     1.07300
C694        C  0.39987794  0.98949797  0.11369639     1.07700
C695        C  0.39848075  0.49003837  0.88718845     1.07300
C696        C  0.07721574  0.50569447  0.88514907     1.06800
C697        C  0.06207379  0.59441052  0.99994261     1.07300
C698        C  0.39342118  0.57287935  0.99538880     1.06800
H699        H  0.03092546  0.55116734  0.93312130     0.33400
O700        O  0.01776878  0.53490974  0.95092932    -1.29100
H701        H  0.43551303  0.54093167  0.06481131     0.33500
O702        O  0.45132129  0.52752715  0.04687704    -1.30500
N703        N  0.18776735  0.75552348  0.98120269    -0.36000
N704        N  0.24710129  0.79985954  0.97416271    -0.56600
N705        N  0.28927623  0.73892807  0.97643193    -0.36000
N706        N  0.23006703  0.69451560  0.98613963    -0.56600
C707        C  0.17365739  0.78719260  0.98747441     0.27500
C708        C  0.16472365  0.73157772  0.99467128     0.27600
C709        C  0.31258323  0.76381938  0.98460851     0.27500
C710        C  0.30334153  0.70823723  0.98818153     0.27500
C711        C  0.22328673  0.82439707  0.96756847     0.36200
C712        C  0.27716627  0.81565839  0.96788148     0.36200
C713        C  0.19984639  0.67846021  0.98425943     0.36200
C714        C  0.25356057  0.66964927  0.97910577     0.36200
C715        C  0.14105248  0.78326414  0.00441646    -0.21300
C716        C  0.13542607  0.74814494  0.00888057    -0.21300
C717        C  0.34198745  0.74857623  0.00060472    -0.21300
C718        C  0.33604784  0.71353349  0.00322061    -0.21300
C719        C  0.23820661  0.85604418  0.95680202    -0.22400
C720        C  0.27246774  0.85055183  0.95730252    -0.22400
C721        C  0.20415101  0.64303332  0.97678734    -0.22400
C722        C  0.23832714  0.63748249  0.97319525    -0.22400
C723        C  0.18863977  0.81955763  0.97639602    -0.17700
C724        C  0.16858489  0.69513922  0.99168113    -0.17700
C725        C  0.28853655  0.67520970  0.98251468    -0.17700
C726        C  0.30856068  0.79980597  0.97660368    -0.17700
H727        H  0.12298188  0.80356503  0.01242745     0.15200
H728        H  0.11227403  0.73618743  0.02086222     0.15200
H729        H  0.36546700  0.76121907  0.00934572     0.15200
H730        H  0.35398746  0.69409237  0.01443702     0.15200
H731        H  0.22576065  0.88077453  0.95102030     0.13500
H732        H  0.29163324  0.87022591  0.95185613     0.13500
H733        H  0.18476766  0.62322750  0.97464509     0.13500
H734        H  0.25058285  0.61254732  0.96809395     0.13500
H735        H  0.21012771  0.75058844  0.96386028     0.26700
H736        H  0.26674870  0.74199768  0.95904993     0.26700
C737        C  0.03724790  0.74852445  0.28219774     0.87100
C738        C  0.03311179  0.71614266  0.25217216    -0.53200
C739        C  0.50382692  0.71442292  0.22784807     0.10000
C740        C  0.48093790  0.74716614  0.23459247     0.20900
C741        C  0.03239443  0.77984639  0.25033738    -0.53900
C742        C  0.50372062  0.77935910  0.22459030     0.10100
C743        C  0.50397509  0.75029387  0.31075318    -0.53400
C744        C  0.47443596  0.74893019  0.28626495     0.10700
H745        H  0.05201079  0.69561336  0.25095458     0.15200
H746        H  0.45733605  0.74676951  0.21455207     0.00900
H747        H  0.04901724  0.80227540  0.24976123     0.15500
H748        H  0.50359429  0.75382098  0.34714724     0.15300
C749        C  0.20709598  0.99982829  0.21713140     0.87100
C750        C  0.21180751  0.96742053  0.24723937    -0.53200
C751        C  0.24068107  0.96685010  0.27227015     0.10000
C752        C  0.26372228  0.99895527  0.26382524     0.20900
C753        C  0.21172049  0.53098867  0.24868247    -0.53900
C754        C  0.24136092  0.53190899  0.27215433     0.10100
C755        C  0.24010471  0.99876295  0.18810708    -0.53400
C756        C  0.26988868  0.99838276  0.21216577     0.10700
H757        H  0.19501993  0.94512865  0.24696766     0.15200
H758        H  0.28732038  0.99798477  0.28373246     0.00900
H759        H  0.19303551  0.55166762  0.25106001     0.15500
H760        H  0.23999700  0.99672492  0.15154794     0.15300
C761        C  0.03836774  0.74513684  0.71296419     0.87100
C762        C  0.03460759  0.77703921  0.74405615    -0.53200
C763        C  0.50538206  0.77879346  0.76902138     0.10000
C764        C  0.48197111  0.74660911  0.76066323     0.20900
C765        C  0.03326405  0.71337005  0.74310722    -0.53900
C766        C  0.50394204  0.71300043  0.76751311     0.10100
C767        C  0.50529639  0.74741857  0.68435245    -0.53400
C768        C  0.47550020  0.74800454  0.70909899     0.10700
H769        H  0.05281455  0.79807029  0.74426110     0.15200
H770        H  0.45837860  0.74716582  0.78085989     0.00900
H771        H  0.05129929  0.69200469  0.74434934     0.15500
H772        H  0.50550259  0.74960872  0.64778071     0.15300
C773        C  0.20709215  0.00289467  0.78167720     0.87100
C774        C  0.21307289  0.53364452  0.74961406    -0.53200
C775        C  0.24309933  0.53334192  0.72669016     0.10000
C776        C  0.26429707  0.99953330  0.73588544     0.20900
C777        C  0.21094882  0.97003759  0.75218324    -0.53900
C778        C  0.24024539  0.96795027  0.72772183     0.10100
C779        C  0.23938767  0.00103635  0.81125101    -0.53400
C780        C  0.26950489  0.99933827  0.78773060     0.10700
H781        H  0.19516704  0.55501439  0.74678278     0.15200
H782        H  0.28830578  0.99774699  0.71651366     0.00900
H783        H  0.19253359  0.94910589  0.75167981     0.15500
H784        H  0.23861893  0.99957691  0.84780463     0.15300
C785        C  0.10935450  0.00802469  0.14110182    -0.04800
C786        C  0.11077671  0.48975576  0.18281297    -0.01900
C787        C  0.14128162  0.48834931  0.20828273     0.03100
C788        C  0.17246221  0.00268676  0.19098708    -0.04800
C789        C  0.16966325  0.02400762  0.15167021    -0.01900
C790        C  0.13913667  0.02592924  0.12671728     0.03100
C791        C  0.08112512  0.47114136  0.19891096     0.37800
C792        C  0.19778109  0.04546325  0.13656237     0.37700
C793        C  0.13929230  0.04672246  0.08558544     0.36200
C794        C  0.13894857  0.47426698  0.25370182     0.36200
N795        N  0.14099841  0.06311551  0.05276255    -0.38700
N796        N  0.13621920  0.46276211  0.28977126    -0.38700
N797        N  0.21991636  0.06233440  0.12312067    -0.38100
N798        N  0.05741794  0.45621577  0.21137665    -0.38100
C799        C  0.30456120  0.99424485  0.19017067    -0.04800
C800        C  0.30979358  0.96900584  0.15589103    -0.01900
C801        C  0.34118868  0.96647108  0.13286569     0.03100
C802        C  0.36901810  0.98818773  0.14445552    -0.04800
C803        C  0.36457040  0.51157328  0.18092003    -0.01900
C804        C  0.33270419  0.51469454  0.20340493     0.03100
C805        C  0.28335451  0.94403392  0.14542319     0.37800
C806        C  0.39180871  0.53500094  0.19288436     0.37700
C807        C  0.32898078  0.54038624  0.23896051     0.36200
C808        C  0.34387832  0.94186065  0.09578024     0.36200
N809        N  0.32687684  0.56088143  0.26753000    -0.38700
N810        N  0.34476777  0.92274709  0.06557724    -0.38700
N811        N  0.41325842  0.55404619  0.20244601    -0.38100
N812        N  0.26249499  0.92394204  0.13714025    -0.38100
C813        C  0.49750379  0.80872961  0.19148260    -0.04800
C814        C  0.02187500  0.81488926  0.15717397    -0.01900
C815        C  0.02241593  0.84676039  0.13303920     0.03100
C816        C  0.49835779  0.87360193  0.14267040    -0.04800
C817        C  0.47316176  0.86676558  0.17576048    -0.01900
C818        C  0.47190396  0.83397772  0.19847630     0.03100
C819        C  0.04508234  0.78714550  0.14455116     0.37800
C820        C  0.44777271  0.89301534  0.18549540     0.37700
C821        C  0.44267937  0.82540082  0.22584068     0.36200
C822        C  0.04787547  0.85148096  0.09803306     0.36200
N823        N  0.41812330  0.81899782  0.24557207    -0.38700
N824        N  0.06811049  0.85435296  0.06986469    -0.38700
N825        N  0.42748731  0.91396139  0.19324706    -0.38100
N826        N  0.06297628  0.76471461  0.13379190    -0.38100
C827        C  0.49534569  0.68245809  0.19953236    -0.04800
C828        C  0.49796078  0.64827677  0.21784468    -0.01900
C829        C  0.49396055  0.61812252  0.19026031     0.03100
C830        C  0.48505750  0.62109783  0.14381557    -0.04800
C831        C  0.47887766  0.65572313  0.12713969    -0.01900
C832        C  0.48525719  0.68569027  0.15406656     0.03100
C833        C  0.50261858  0.64381515  0.26616268     0.37800
C834        C  0.46478921  0.66159600  0.08250540     0.37700
C835        C  0.48192611  0.72005333  0.13398633     0.36200
C836        C  0.49910092  0.58414052  0.21065464     0.36200
N837        N  0.47887428  0.74708553  0.11706844    -0.38700
N838        N  0.50327061  0.55717705  0.22735696    -0.38700
N839        N  0.45330911  0.66693858  0.04723957    -0.38100
N840        N  0.50564450  0.63978206  0.30472943    -0.38100
C841        C  0.11349419  0.89854292  0.98720434    -0.04800
C842        C  0.12003121  0.88317765  0.94471119    -0.01900
C843        C  0.14616589  0.85862596  0.94025622     0.03100
C844        C  0.16639457  0.85055288  0.97788621    -0.04800
C845        C  0.16206467  0.86861723  0.01904213    -0.01900
C846        C  0.13510542  0.89216129  0.02404242     0.03100
C847        C  0.10006468  0.89292544  0.90563341     0.37800
C848        C  0.18471962  0.86199918  0.05649404     0.37700
C849        C  0.12847093  0.90823401  0.06764711     0.36200
C850        C  0.15175966  0.84094731  0.89748361     0.36200
N851        N  0.12292873  0.92060627  0.10261761    -0.38700
N852        N  0.15623821  0.82679962  0.86340029    -0.38700
N853        N  0.20308598  0.85689292  0.08608665    -0.38100
N854        N  0.08438342  0.90105753  0.87442298    -0.38100
C855        C  0.33860615  0.82254762  0.98177248    -0.04800
C856        C  0.35567535  0.83538443  0.94318724    -0.01900
C857        C  0.38277370  0.85864325  0.94837892     0.03100
C858        C  0.39294495  0.86860095  0.99212201    -0.04800
C859        C  0.37842062  0.85275731  0.03049024    -0.01900
C860        C  0.35038375  0.83074924  0.02550847     0.03100
C861        C  0.34450353  0.82567026  0.89829945     0.37800
C862        C  0.39243046  0.85885380  0.07491389     0.37700
C863        C  0.33342112  0.81679315  0.06529517     0.36200
C864        C  0.39919846  0.87354635  0.90878195     0.36200
N865        N  0.31993580  0.80546273  0.09691590    -0.38700
N866        N  0.41197957  0.88565201  0.87713645    -0.38700
N867        N  0.40357529  0.86306817  0.11054187    -0.38100
N868        N  0.33546802  0.81803637  0.86249818    -0.38100
C869        C  0.36443594  0.59638449  0.99067124    -0.04800
C870        C  0.36086549  0.61590790  0.95050420    -0.01900
C871        C  0.33456032  0.64022536  0.94672493     0.03100
C872        C  0.31172158  0.64492305  0.98308304    -0.04800
C873        C  0.31483430  0.62489153  0.02289068    -0.01900
C874        C  0.34117276  0.60049610  0.02662185     0.03100
C875        C  0.38474995  0.61164947  0.91343919     0.37800
C876        C  0.29252205  0.63141161  0.06116163     0.37700
C877        C  0.34573443  0.58158936  0.06863415     0.36200
C878        C  0.33238282  0.66222632  0.90678462     0.36200
N879        N  0.34927208  0.56692552  0.10249332    -0.38700
N880        N  0.33097303  0.68018338  0.87534136    -0.38700
N881        N  0.27472541  0.63696240  0.09154565    -0.38100
N882        N  0.40375295  0.60856703  0.88380275    -0.38100
C883        C  0.08554973  0.62387291  0.99897740    -0.04800
C884        C  0.10025060  0.63581497  0.03938159    -0.01900
C885        C  0.12698782  0.65994018  0.03737770     0.03100
C886        C  0.13791025  0.67301939  0.99505971    -0.04800
C887        C  0.12090559  0.66349185  0.95518293    -0.01900
C888        C  0.09530236  0.63822510  0.95698692     0.03100
C889        C  0.08827156  0.62273201  0.08274556     0.37800
C890        C  0.13024086  0.67927644  0.91225245     0.37700
C891        C  0.08025746  0.62563890  0.91545969     0.36200
C892        C  0.14351680  0.67091441  0.07860685     0.36200
N893        N  0.06859271  0.61530527  0.88228982    -0.38700
N894        N  0.15651318  0.67960284  0.11168727    -0.38700
N895        N  0.13743857  0.69213313  0.87807784    -0.38100
N896        N  0.07868226  0.61230225  0.11729132    -0.38100
C897        C  0.36736902  0.48917325  0.85709990    -0.04800
C898        C  0.36308172  0.51304977  0.82102576    -0.01900
C899        C  0.33162818  0.51615353  0.79816636     0.03100
C900        C  0.30361263  0.99528259  0.81064436    -0.04800
C901        C  0.30803792  0.97079132  0.84608719    -0.01900
C902        C  0.33933194  0.96788394  0.86890221     0.03100
C903        C  0.38991793  0.53710222  0.80989790     0.37800
C904        C  0.28048770  0.94768806  0.85913444     0.37700
C905        C  0.34130593  0.94355189  0.90636923     0.36200
C906        C  0.32802221  0.54300118  0.76397660     0.36200
N907        N  0.34129473  0.92466088  0.93688479    -0.38700
N908        N  0.32624621  0.56484300  0.73705524    -0.38700
N909        N  0.25871635  0.92907904  0.86936568    -0.38100
N910        N  0.41067866  0.55709038  0.80079798    -0.38100
C911        C  0.17221552  0.00683944  0.80662725    -0.04800
C912        C  0.14138254  0.99577439  0.78628989    -0.01900
C913        C  0.11056765  0.99507004  0.81126892     0.03100
C914        C  0.10838454  0.50957340  0.85509236    -0.04800
C915        C  0.13773444  0.52693177  0.87165354    -0.01900
C916        C  0.16879576  0.52612858  0.84748025     0.03100
C917        C  0.14001910  0.98751798  0.73845856     0.37800
C918        C  0.13682838  0.54608906  0.91406081     0.37700
C919        C  0.19644768  0.54711115  0.86452637     0.36200
C920        C  0.08165028  0.97794075  0.79177904     0.36200
N921        N  0.21800328  0.56374168  0.87958934    -0.38700
N922        N  0.05916131  0.96376952  0.77527194    -0.38700
N923        N  0.13732296  0.56108106  0.94798226    -0.38100
N924        N  0.13795755  0.98106778  0.70034259    -0.38100
C925        C  0.48708625  0.62000130  0.85200657    -0.04800
C926        C  0.99591049  0.65336687  0.87079792    -0.01900
C927        C  0.00351766  0.68220570  0.84269503     0.03100
C928        C  0.49581272  0.68156354  0.79642613    -0.04800
C929        C  0.48746216  0.64894663  0.77682567    -0.01900
C930        C  0.48462379  0.61822574  0.80394970     0.03100
C931        C  0.99827202  0.65910846  0.91919268     0.37800
C932        C  0.48359540  0.64650035  0.72811941     0.37700
C933        C  0.48079260  0.58494512  0.78144660     0.36200
C934        C  0.02351766  0.71073464  0.86049274     0.36200
N935        N  0.47843032  0.55858153  0.76271235    -0.38700
N936        N  0.04031637  0.73287197  0.87446312    -0.38700
N937        N  0.48046587  0.64416968  0.68932869    -0.38100
N938        N  0.99983465  0.66448734  0.95764160    -0.38100
C939        C  0.49252480  0.87257677  0.85387670    -0.04800
C940        C  0.98529744  0.83822573  0.87086212    -0.01900
C941        C  0.98538712  0.80870967  0.84182252     0.03100
C942        C  0.49712149  0.81133400  0.79677813    -0.04800
C943        C  0.50277299  0.84557586  0.77924661    -0.01900
C944        C  0.49798788  0.87564046  0.80664825     0.03100
C945        C  0.97665842  0.83227343  0.91809885     0.37800
C946        C  0.51330865  0.85086772  0.73264755     0.37700
C947        C  0.49632015  0.90948362  0.78497096     0.36200
C948        C  0.97195781  0.77603249  0.85874862     0.36200
N949        N  0.49337184  0.93614890  0.76707540    -0.38700
N950        N  0.95976871  0.75086142  0.87301513    -0.38700
N951        N  0.52285872  0.85632134  0.69623230    -0.38100
N952        N  0.96997746  0.82634724  0.95551846    -0.38100
C953        C  0.44055115  0.75260982  0.68821846    -0.04800
C954        C  0.43472425  0.77885036  0.65528339    -0.01900
C955        C  0.40270362  0.78255867  0.63466460     0.03100
C956        C  0.37600264  0.75913947  0.64414296    -0.04800
C957        C  0.38051191  0.73504020  0.67983368    -0.01900
C958        C  0.41235422  0.73189571  0.70185012     0.03100
C959        C  0.46133654  0.80286706  0.64240739     0.37800
C960        C  0.35242529  0.71331388  0.69406538     0.37700
C961        C  0.41563074  0.70663106  0.73797748     0.36200
C962        C  0.39656126  0.81234531  0.60577983     0.36200
N963        N  0.41707918  0.68669650  0.76732297    -0.38700
N964        N  0.39194630  0.83688756  0.58400897    -0.38700
N965        N  0.32996187  0.69625115  0.70600317    -0.38100
N966        N  0.48215576  0.82202909  0.63064790    -0.38100
C967        C  0.07320516  0.74218969  0.68786427    -0.04800
C968        C  0.10409713  0.75378290  0.70797015    -0.01900
C969        C  0.13512253  0.75329691  0.68345084     0.03100
C970        C  0.13727320  0.73723349  0.64060437    -0.04800
C971        C  0.10776092  0.71984311  0.62448936    -0.01900
C972        C  0.07657749  0.72173612  0.64818721     0.03100
C973        C  0.10539136  0.76302763  0.75550488     0.37800
C974        C  0.10852532  0.69939417  0.58321961     0.37700
C975        C  0.04878711  0.70004931  0.63296489     0.36200
C976        C  0.16453759  0.77024887  0.70239440     0.36200
N977        N  0.02697509  0.68252635  0.62046026    -0.38700
N978        N  0.18784479  0.78404282  0.71757659    -0.38700
N979        N  0.10725687  0.68318991  0.55032189    -0.38100
N980        N  0.10654696  0.77029965  0.79346800    -0.38100
C981        C  0.26314749  0.62702185  0.64472365    -0.04800
C982        C  0.27184070  0.59288553  0.62844675    -0.01900
C983        C  0.26639670  0.56258921  0.65524672     0.03100
C984        C  0.25397002  0.56534002  0.69982948    -0.04800
C985        C  0.24980643  0.59940065  0.71816275    -0.01900
C986        C  0.25280440  0.62965519  0.69063231     0.03100
C987        C  0.28688980  0.58801226  0.58402346     0.37800
C988        C  0.24393133  0.60384102  0.76627655     0.37700
C989        C  0.24380418  0.66320892  0.70989415     0.36200
C990        C  0.27344805  0.52846577  0.63627513     0.36200
N991        N  0.23630121  0.68983028  0.72540273    -0.38700
N992        N  0.27959683  0.50149596  0.62075163    -0.38700
N993        N  0.23972958  0.60828306  0.80459907    -0.38100
N994        N  0.29895507  0.58368032  0.54872263    -0.38100
C995        C  0.24783535  0.87429769  0.64277612    -0.04800
C996        C  0.26466981  0.87603072  0.68489233    -0.01900
C997        C  0.26509172  0.90754959  0.71042939     0.03100
C998        C  0.24620594  0.93711274  0.69672334    -0.04800
C999        C  0.22844329  0.93517182  0.65564389    -0.01900
C1000       C  0.23035130  0.90499949  0.62805922     0.03100
C1001       C  0.28263878  0.84576841  0.70176767     0.37800
C1002       C  0.20841160  0.96486114  0.64105679     0.37700
C1003       C  0.21483293  0.90691287  0.58374497     0.36200
C1004       C  0.28647625  0.90943477  0.74973995     0.36200
N1005       N  0.20307695  0.90985166  0.54818855    -0.38700
N1006       N  0.30509536  0.90921525  0.77969711    -0.38700
N1007       N  0.19254123  0.98846570  0.62913670    -0.38100
N1008       N  0.29679804  0.82169968  0.71580730    -0.38100
C1009       C  0.38181064  0.64814357  0.50903833    -0.04800
C1010       C  0.40495204  0.64216421  0.47336041    -0.01900
C1011       C  0.43171605  0.61838960  0.47913394     0.03100
C1012       C  0.43522221  0.60053199  0.52056993    -0.04800
C1013       C  0.41336775  0.60809027  0.55710673    -0.01900
C1014       C  0.38666709  0.63186265  0.55137389     0.04500
C1015       C  0.40049886  0.65937657  0.43018000     0.37800
C1016       C  0.41827571  0.59103564  0.60045059     0.37700
C1017       C  0.36440947  0.63974858  0.58919534     0.36200
C1018       C  0.45506916  0.61150877  0.44216233     0.36200
N1019       N  0.34686164  0.64591120  0.61961436    -0.38700
N1020       N  0.47371935  0.60614062  0.41265235    -0.38700
N1021       N  0.42237038  0.57747154  0.63499310    -0.38100
N1022       N  0.39714069  0.67289732  0.39551663    -0.38100
C1023       C  0.10781686  0.57806207  0.53258061    -0.04800
C1024       C  0.11722807  0.58582124  0.48752098    -0.01900
C1025       C  0.14398144  0.60896293  0.47896684     0.03100
C1026       C  0.16036670  0.62509247  0.51547796    -0.04800
C1027       C  0.15176368  0.61633404  0.56053508    -0.01900
C1028       C  0.12563964  0.59245944  0.56905448     0.03100
C1029       C  0.09886035  0.57044105  0.45019849     0.37800
C1030       C  0.16839330  0.63334258  0.59812045     0.37700
C1031       C  0.11624434  0.58347688  0.61517618     0.36200
C1032       C  0.15442260  0.61652096  0.43281483     0.36200
N1033       N  0.10859670  0.57620203  0.65186037    -0.38700
N1034       N  0.16289455  0.62239118  0.39602237    -0.38700
N1035       N  0.18107908  0.64709256  0.62839038    -0.38100
N1036       N  0.08398415  0.55811520  0.42068882    -0.38100
C1037       C  0.13639816  0.85070688  0.52248938    -0.04800
C1038       C  0.11357578  0.86125239  0.48885174    -0.01900
C1039       C  0.08856869  0.88610940  0.49914158     0.03100
C1040       C  0.08485762  0.89867080  0.54385666    -0.04800
C1041       C  0.10575864  0.88565055  0.57843323    -0.01900
C1042       C  0.13154090  0.86161138  0.56773893     0.03100
C1043       C  0.11600644  0.84674107  0.44362624     0.37800
C1044       C  0.10145376  0.89798924  0.62449415     0.37700
C1045       C  0.15265917  0.84759556  0.60333357     0.36200
C1046       C  0.06850734  0.90092976  0.46299866     0.36200
N1047       N  0.16929106  0.83625641  0.63184496    -0.38700
N1048       N  0.05298490  0.91325409  0.43404181    -0.38700
N1049       N  0.09798886  0.90782239  0.66124617    -0.38100
N1050       N  0.11771134  0.83491422  0.40767403    -0.38100
C1051       C  0.36273615  0.87334282  0.50407971    -0.04800
C1052       C  0.35710790  0.90270129  0.53230889    -0.01900
C1053       C  0.38378868  0.92592137  0.54174222     0.03100
C1054       C  0.41540772  0.92190308  0.51996615    -0.04800
C1055       C  0.42014126  0.89466478  0.48877645    -0.01900
C1056       C  0.39533349  0.86885720  0.48413133     0.03100
C1057       C  0.32510415  0.90757465  0.55548470     0.37800
C1058       C  0.45103039  0.89272086  0.46201302     0.37700
C1059       C  0.40573017  0.83608802  0.46399556     0.36200
C1060       C  0.37890934  0.95356092  0.57469778     0.36200
N1061       N  0.41532944  0.80962543  0.45022870    -0.38700
N1062       N  0.37492629  0.97564483  0.60084450    -0.38700
N1063       N  0.47555382  0.89127494  0.44056425    -0.38100
N1064       N  0.29989869  0.91222973  0.57452347    -0.38100
C1065       C  0.13596852  0.74328284  0.35717504    -0.04800
C1066       C  0.13398922  0.76024366  0.31486185    -0.01900
C1067       C  0.10319341  0.76076177  0.28983722     0.03100
C1068       C  0.07209944  0.74718599  0.30833624    -0.04800
C1069       C  0.07534176  0.72735635  0.34886670    -0.01900
C1070       C  0.10631153  0.72587497  0.37296585     0.03100
C1071       C  0.16359847  0.77801492  0.29698693     0.37800
C1072       C  0.04740642  0.70640622  0.36563242     0.37700
C1073       C  0.10724141  0.70530729  0.41425349     0.36200
C1074       C  0.10544892  0.77316191  0.24363879     0.36200
N1075       N  0.10731712  0.68909267  0.44728307    -0.38700
N1076       N  0.10889857  0.78348289  0.20709945    -0.38700
N1077       N  0.02549158  0.68968500  0.38002145    -0.38100
N1078       N  0.18707461  0.79232385  0.28261151    -0.38100
C1079       C  0.43932970  0.75173321  0.30729765    -0.04800
C1080       C  0.41403104  0.72620864  0.29904487    -0.01900
C1081       C  0.38151921  0.72875003  0.31977858     0.03100
C1082       C  0.37324037  0.75756452  0.34728927    -0.04800
C1083       C  0.39632560  0.78542177  0.34910850    -0.01900
C1084       C  0.42998438  0.78135936  0.33325280     0.03100
C1085       C  0.42134515  0.69634537  0.27082375     0.37800
C1086       C  0.38377263  0.81961219  0.36150113     0.37700
C1087       C  0.45454668  0.80825848  0.34306918     0.36200
C1088       C  0.35646980  0.70178707  0.31257530     0.36200
N1089       N  0.47418694  0.82950723  0.35177342    -0.38700
N1090       N  0.33640673  0.68039801  0.30651321    -0.38700
N1091       N  0.37328417  0.84706176  0.36980252    -0.38100
N1092       N  0.42575975  0.67212048  0.24829662    -0.38100
C1093       C  0.24718013  0.93669577  0.30379420    -0.04800
C1094       C  0.22512349  0.93180554  0.34083736    -0.01900
C1095       C  0.22458812  0.89995625  0.36488616     0.03100
C1096       C  0.24693502  0.87221547  0.35321415    -0.04800
C1097       C  0.27013238  0.87771887  0.31717921    -0.01900
C1098       C  0.27083461  0.91009704  0.29350182     0.03100
C1099       C  0.20406735  0.96065619  0.35583167     0.37800
C1100       C  0.29401002  0.85053761  0.30507048     0.37700
C1101       C  0.29755263  0.91660895  0.26098480     0.36200
C1102       C  0.20047131  0.89616324  0.40174428     0.36200
N1103       N  0.32018657  0.92101844  0.23669781    -0.38700
N1104       N  0.18122181  0.89409142  0.43124099    -0.38700
N1105       N  0.31296995  0.82889591  0.29487903    -0.38100
N1106       N  0.18792065  0.98396287  0.36825538    -0.38100
C1107       C  0.26304492  0.62544516  0.35411239    -0.04800
C1108       C  0.27018765  0.59098361  0.37051911    -0.01900
C1109       C  0.26356228  0.56087345  0.34399523     0.03100
C1110       C  0.25118131  0.56395526  0.29952833    -0.04800
C1111       C  0.24766552  0.59818528  0.28135023    -0.01900
C1112       C  0.25327527  0.62837428  0.30818344     0.03100
C1113       C  0.28544084  0.58556500  0.41447199     0.37800
C1114       C  0.23905240  0.60310589  0.23422444     0.37700
C1115       C  0.24919082  0.66246000  0.28753895     0.36200
C1116       C  0.26901406  0.52657965  0.36347829     0.36200
N1117       N  0.24617088  0.68957608  0.27080094    -0.38700
N1118       N  0.27386669  0.49955357  0.37965674    -0.38700
N1119       N  0.23216040  0.60855818  0.19692787    -0.38100
N1120       N  0.29776368  0.58067279  0.44929094    -0.38100
O1121       O  0.76079907  0.18893671  0.37016511    -0.85900
O1122       O  0.76193268  0.19045605  0.62854326    -0.86100
O1123       O  0.82302926  0.15853915  0.50318409    -0.87800
O1124       O  0.71560098  0.14590381  0.50508107    -0.86500
O1125       O  0.67135317  0.18442100  0.50406339    -0.86100
O1126       O  0.85973193  0.20458822  0.49899364    -0.87500
O1127       O  0.76408086  0.15130572  0.57053597    -0.85900
O1128       O  0.76590432  0.15003890  0.42821479    -0.85500
Zr1129     Zr  0.76547499  0.18141904  0.49887541     2.84300
O1130       O  0.72870447  0.21263446  0.54590982    -1.07500
O1131       O  0.79474392  0.21856105  0.44993555    -1.08200
C1132       C  0.76373328  0.15713869  0.38579850     1.07200
C1133       C  0.76331150  0.15860505  0.61295853     1.07100
C1134       C  0.85293811  0.17194870  0.50278408     1.10100
C1135       C  0.68408140  0.15360835  0.50708672     1.07900
H1136       H  0.81055179  0.20580696  0.56423836     0.33500
O1137       O  0.79505053  0.21911021  0.54594402    -1.28500
H1138       H  0.71410887  0.19506684  0.43434906     0.33100
O1139       O  0.72759238  0.21125699  0.45154781    -1.30100
O1140       O  0.75248310  0.31084498  0.62789286    -0.85900
O1141       O  0.75228806  0.30935232  0.36823762    -0.87400
O1142       O  0.85360686  0.25873961  0.56993113    -0.86000
O1143       O  0.66172176  0.24083594  0.56832163    -0.86000
O1144       O  0.66112012  0.24517816  0.42956840    -0.85800
O1145       O  0.85239881  0.25900593  0.42250920    -0.85600
O1146       O  0.80505852  0.35331508  0.49876335    -0.85900
O1147       O  0.69461810  0.34124751  0.50744279    -0.85400
O1148       O  0.84809141  0.31383855  0.50076917    -0.86500
O1149       O  0.65795042  0.29502436  0.50724137    -0.85600
O1150       O  0.81541411  0.25474698  0.62875561    -0.86000
O1151       O  0.81337121  0.25264849  0.36562348    -0.85700
O1152       O  0.69802913  0.24580174  0.36975845    -0.85400
O1153       O  0.69902418  0.24328514  0.62706002    -0.85800
O1154       O  0.75224354  0.35005106  0.56931229    -0.86100
O1155       O  0.74926885  0.34883932  0.42659193    -0.87400
Zr1156     Zr  0.75801579  0.25036392  0.59451113     2.83100
Zr1157     Zr  0.75677893  0.24952287  0.40261007     2.83500
Zr1158     Zr  0.82481077  0.25620467  0.49705600     2.84100
Zr1159     Zr  0.69252572  0.24371203  0.49894614     2.83400
Zr1160     Zr  0.75252753  0.31915100  0.49839245     2.84200
O1161       O  0.72133652  0.28214020  0.45125421    -1.08000
O1162       O  0.78872196  0.28751847  0.54510974    -1.07500
C1163       C  0.75109774  0.34267745  0.61176107     1.07200
C1164       C  0.74960964  0.34102039  0.38422573     1.09800
C1165       C  0.84604915  0.25759291  0.61259776     1.07300
C1166       C  0.66844831  0.24045599  0.61062981     1.07700
C1167       C  0.66742081  0.24489187  0.38687922     1.07300
C1168       C  0.84409286  0.25650719  0.38029714     1.06800
C1169       C  0.83676387  0.34518087  0.50061768     1.07300
C1170       C  0.66484818  0.32757478  0.51097895     1.06800
H1171       H  0.80108248  0.30328249  0.43176200     0.33400
O1172       O  0.78808905  0.28731519  0.45017655    -1.29100
H1173       H  0.70697351  0.29447284  0.56502507     0.33500
O1174       O  0.72236720  0.28147366  0.54598398    -1.30500
N1175       N  0.96057354  0.50750159  0.53123923    -0.36000
N1176       N  0.50441915  0.44818221  0.54472289    -0.56600
N1177       N  0.56212968  0.49364431  0.55180833    -0.36000
N1178       N  0.51760127  0.05318272  0.53593349    -0.56600
C1179       C  0.94055999  0.48128644  0.51712627     0.27500
C1180       C  0.94718245  0.03741890  0.51514316     0.27600
C1181       C  0.57783931  0.46263436  0.54634527     0.27500
C1182       C  0.58490145  0.01857991  0.54129406     0.27500
C1183       C  0.97418848  0.43219498  0.54795424     0.36200
C1184       C  0.52783797  0.42458742  0.55739877     0.36200
C1185       C  0.99291023  0.07747308  0.53704521     0.36200
C1186       C  0.54661466  0.07004864  0.54469766     0.36200
C1187       C  0.91428085  0.49465332  0.49149301    -0.21300
C1188       C  0.91824273  0.03028119  0.49072957    -0.21300
C1189       C  0.61131272  0.46801485  0.53388286    -0.21300
C1190       C  0.61581310  0.00336678  0.53101614    -0.21300
C1191       C  0.97834735  0.39838309  0.56380481    -0.22400
C1192       C  0.51247686  0.39346430  0.56920875    -0.22400
C1193       C  0.00621142  0.10994114  0.54675543    -0.22400
C1194       C  0.54046325  0.10532145  0.55101943    -0.22400
C1195       C  0.94397247  0.44603108  0.52985795    -0.17700
C1196       C  0.95932597  0.07105436  0.52454448    -0.17700
C1197       C  0.57882886  0.05474994  0.54134175    -0.17700
C1198       C  0.56289378  0.42955003  0.55222798    -0.17700
H1199       H  0.89387846  0.48038949  0.47587166     0.15200
H1200       H  0.90164684  0.04873722  0.47428746     0.15200
H1201       H  0.63056444  0.44855839  0.52741307     0.15200
H1202       H  0.63912363  0.01630846  0.52164477     0.15200
H1203       H  0.95898207  0.37879391  0.56855791     0.13500
H1204       H  0.52475136  0.36948046  0.57927426     0.13500
H1205       H  0.99286542  0.13453704  0.54867735     0.13500
H1206       H  0.55878782  0.12564040  0.55722668     0.13500
H1207       H  0.97957225  0.50561283  0.55527687     0.26700
H1208       H  0.53807578  0.49774017  0.56506813     0.26700
O1209       O  0.99073611  0.43596621  0.86980848    -0.85900
O1210       O  0.99305501  0.43665055  0.12839876    -0.86100
O1211       O  0.55469766  0.40716240  0.99260986    -0.87800
O1212       O  0.94769751  0.39165341  0.99790196    -0.86500
O1213       O  0.90232748  0.42876664  0.99867397    -0.86100
O1214       O  0.59014374  0.45417809  0.99618718    -0.87500
O1215       O  0.99825281  0.39776445  0.06960496    -0.85900
O1216       O  0.99806695  0.39710534  0.92760959    -0.85500
Zr1217     Zr  0.99699842  0.42843419  0.99843100     2.84300
O1218       O  0.95973061  0.45832757  0.04664231    -1.07500
O1219       O  0.52585930  0.46645440  0.95039142    -1.08200
C1220       C  0.99388763  0.40418061  0.88545065     1.07200
C1221       C  0.99644671  0.40513367  0.11203160     1.07100
C1222       C  0.58415442  0.42145071  0.99269764     1.10100
C1223       C  0.91591807  0.39822260  0.99729260     1.07900
H1224       H  0.54211844  0.45269901  0.06428712     0.33500
O1225       O  0.52606549  0.46589220  0.04669112    -1.28500
H1226       H  0.94627187  0.44230458  0.93409450     0.33100
O1227       O  0.95928855  0.45849296  0.95181270    -1.30100
O1228       O  0.98610123  0.05750239  0.12789133    -0.85900
O1229       O  0.98668759  0.05625655  0.86695711    -0.87400
O1230       O  0.58538756  0.50632587  0.06800477    -0.86000
O1231       O  0.89292282  0.48779584  0.07131162    -0.86000
O1232       O  0.89182420  0.98786933  0.92977147    -0.85800
O1233       O  0.58369747  0.00592362  0.92762445    -0.85600
O1234       O  0.53031742  0.10130138  0.99825197    -0.85900
O1235       O  0.92289138  0.08697496  0.99546193    -0.85400
O1236       O  0.57529184  0.06382678  0.00100426    -0.86500
O1237       O  0.88718748  0.03999851  0.99785552    -0.85600
O1238       O  0.54771050  0.50344985  0.12703073    -0.86000
O1239       O  0.54677970  0.00245280  0.86857735    -0.85700
O1240       O  0.92906178  0.99342252  0.87031621    -0.85400
O1241       O  0.93048085  0.49278478  0.12976768    -0.85800
O1242       O  0.98098814  0.09620389  0.06957453    -0.86100
O1243       O  0.97907695  0.09453678  0.92518011    -0.87400
Zr1244     Zr  0.98878951  0.49700244  0.09504371     2.83100
Zr1245     Zr  0.98821112  0.99665408  0.90232855     2.83500
Zr1246     Zr  0.55413827  0.50463401  0.99861016     2.84100
Zr1247     Zr  0.92260514  0.48864841  0.99987089     2.83400
Zr1248     Zr  0.98031558  0.06521578  0.99807642     2.84200
O1249       O  0.95101622  0.02694748  0.95133274    -1.08000
O1250       O  0.51739329  0.03528568  0.04558749    -1.07500
C1251       C  0.98366287  0.08929176  0.11209396     1.07200
C1252       C  0.98363597  0.08788545  0.88284445     1.09800
C1253       C  0.57846151  0.50606565  0.11053167     1.07300
C1254       C  0.89988439  0.48952408  0.11371702     1.07700
C1255       C  0.89849213  0.99002836  0.88717929     1.07300
C1256       C  0.57721640  0.00572134  0.88514428     1.06800
C1257       C  0.56205085  0.09444123  0.99992594     1.07300
C1258       C  0.89339170  0.07283878  0.99534315     1.06800
H1259       H  0.53091493  0.05118722  0.93312109     0.33400
O1260       O  0.51776207  0.03492623  0.95092918    -1.29100
H1261       H  0.93550318  0.04092106  0.06479847     0.33500
O1262       O  0.95131446  0.02751881  0.04686601    -1.30500
N1263       N  0.68776696  0.25554800  0.98112758    -0.36000
N1264       N  0.74711497  0.29986097  0.97408092    -0.56600
N1265       N  0.78927676  0.23890953  0.97638541    -0.36000
N1266       N  0.73005184  0.19452076  0.98610568    -0.56600
C1267       C  0.67366406  0.28722241  0.98738975     0.27500
C1268       C  0.66471249  0.23160904  0.99458319     0.27600
C1269       C  0.81259653  0.26379667  0.98452282     0.27500
C1270       C  0.80333708  0.20821544  0.98813812     0.27500
C1271       C  0.72330791  0.32440843  0.96749048     0.36200
C1272       C  0.77718551  0.31564823  0.96779626     0.36200
C1273       C  0.69982529  0.17847841  0.98420009     0.36200
C1274       C  0.75353862  0.16964333  0.97909116     0.36200
C1275       C  0.64105263  0.28330345  0.00431276    -0.21300
C1276       C  0.63541473  0.24818577  0.00877343    -0.21300
C1277       C  0.84200578  0.24854545  0.00049236    -0.21300
C1278       C  0.83605456  0.21350488  0.00313727    -0.21300
C1279       C  0.73823753  0.35604914  0.95672117    -0.22400
C1280       C  0.77249601  0.35054405  0.95721822    -0.22400
C1281       C  0.70411958  0.14304959  0.97673156    -0.22400
C1282       C  0.73829468  0.13748343  0.97316935    -0.22400
C1283       C  0.68865897  0.31958414  0.97632094    -0.17700
C1284       C  0.66856578  0.19516853  0.99159971    -0.17700
C1285       C  0.78851717  0.17518950  0.98250398    -0.17700
C1286       C  0.80857824  0.29978670  0.97651586    -0.17700
H1287       H  0.62298447  0.30360945  0.01231162     0.15200
H1288       H  0.61225489  0.23623577  0.02074024     0.15200
H1289       H  0.86549640  0.26118141  0.00919762     0.15200
H1290       H  0.85399433  0.19406030  0.01434351     0.15200
H1291       H  0.72579987  0.38078388  0.95093939     0.13500
H1292       H  0.79166517  0.37021364  0.95177016     0.13500
H1293       H  0.68472953  0.12325224  0.97456950     0.13500
H1294       H  0.75054200  0.11254346  0.96807183     0.13500
H1295       H  0.71013204  0.25060317  0.96380167     0.26700
H1296       H  0.76673954  0.24198353  0.95902879     0.26700
C1297       C  0.53723083  0.24853065  0.28221087     0.87100
C1298       C  0.53308789  0.21613540  0.25220963    -0.53200
C1299       C  0.00382423  0.21443315  0.22785275     0.10000
C1300       C  0.98093756  0.24717908  0.23459347     0.20900
C1301       C  0.53238484  0.27984083  0.25032961    -0.53900
C1302       C  0.00372130  0.27937096  0.22459782     0.10100
C1303       C  0.00397053  0.25030508  0.31075861    -0.53400
C1304       C  0.97443166  0.24894675  0.28626540     0.10700
H1305       H  0.55198175  0.19560060  0.25100823     0.15200
H1306       H  0.95733906  0.24678475  0.21454569     0.00900
H1307       H  0.54900475  0.30227177  0.24975100     0.15500
H1308       H  0.00358948  0.25382987  0.34715332     0.15300
C1309       C  0.70708272  0.49981494  0.21713364     0.87100
C1310       C  0.71180324  0.46740823  0.24723683    -0.53200
C1311       C  0.74067180  0.46684815  0.27227575     0.10000
C1312       C  0.76370804  0.49895583  0.26382975     0.20900
C1313       C  0.71172499  0.03101976  0.24868411    -0.53900
C1314       C  0.74136530  0.03192947  0.27215808     0.10100
C1315       C  0.74009302  0.49876058  0.18810949    -0.53400
C1316       C  0.76987769  0.49838632  0.21216942     0.10700
H1317       H  0.69503066  0.44510507  0.24695160     0.15200
H1318       H  0.78730410  0.49799177  0.28374203     0.00900
H1319       H  0.69304713  0.05170574  0.25106079     0.15500
H1320       H  0.73998545  0.49672880  0.15154975     0.15300
C1321       C  0.53838702  0.24514536  0.71297498     0.87100
C1322       C  0.53463852  0.27703696  0.74408545    -0.53200
C1323       C  0.00540607  0.27876762  0.76905883     0.10000
C1324       C  0.98198734  0.24659550  0.76066994     0.20900
C1325       C  0.53327733  0.21336865  0.74309813    -0.53900
C1326       C  0.00395136  0.21297906  0.76749682     0.10100
C1327       C  0.00532145  0.24743454  0.68436411    -0.53400
C1328       C  0.97552227  0.24801673  0.70910284     0.10700
H1329       H  0.55285108  0.29806330  0.74429852     0.15200
H1330       H  0.95839522  0.24715048  0.78086944     0.00900
H1331       H  0.55130783  0.19199848  0.74432633     0.15500
H1332       H  0.00553357  0.24963676  0.64779396     0.15300
C1333       C  0.70707600  0.50292399  0.78167803     0.87100
C1334       C  0.71308756  0.03364998  0.74962196    -0.53200
C1335       C  0.74311434  0.03334794  0.72669649     0.10000
C1336       C  0.76428575  0.49954721  0.73590481     0.20900
C1337       C  0.71092070  0.47007549  0.75216705    -0.53900
C1338       C  0.74022122  0.46797864  0.72771753     0.10100
C1339       C  0.73936555  0.50104144  0.81126348    -0.53400
C1340       C  0.76948756  0.49933609  0.78775193     0.10700
H1341       H  0.69518210  0.05502012  0.74679115     0.15200
H1342       H  0.78829428  0.49775311  0.71653436     0.00900
H1343       H  0.69249645  0.44915254  0.75164893     0.15500
H1344       H  0.73858642  0.49958905  0.84781775     0.15300
C1345       C  0.60933788  0.50801122  0.14112016    -0.04800
C1346       C  0.61076345  0.98982516  0.18284662    -0.01900
C1347       C  0.64127451  0.98841607  0.20830471     0.03100
C1348       C  0.67244673  0.50266617  0.19099527    -0.04800
C1349       C  0.66964082  0.52400415  0.15169543    -0.01900
C1350       C  0.63911455  0.52592742  0.12674559     0.03100
C1351       C  0.58110005  0.97125652  0.19899407     0.37800
C1352       C  0.69775515  0.54546516  0.13658969     0.37700
C1353       C  0.63926940  0.54672221  0.08561558     0.36200
C1354       C  0.63895053  0.97435194  0.25373423     0.36200
N1355       N  0.64097865  0.56311267  0.05279108    -0.38700
N1356       N  0.63623315  0.96286117  0.28981276    -0.38700
N1357       N  0.71988542  0.56233992  0.12314123    -0.38100
N1358       N  0.55738383  0.95636970  0.21150787    -0.38100
C1359       C  0.80455433  0.49425975  0.19017577    -0.04800
C1360       C  0.80979658  0.46902297  0.15589535    -0.01900
C1361       C  0.84119703  0.46649103  0.13288100     0.03100
C1362       C  0.86902041  0.48821547  0.14447200    -0.04800
C1363       C  0.86457569  0.01155290  0.18091726    -0.01900
C1364       C  0.83270881  0.01469145  0.20339712     0.03100
C1365       C  0.78335833  0.44405716  0.14540375     0.37800
C1366       C  0.89183411  0.03494547  0.19291326     0.37700
C1367       C  0.82899494  0.04038494  0.23895222     0.36200
C1368       C  0.84389902  0.44187760  0.09579990     0.36200
N1369       N  0.82689672  0.06088278  0.26751925    -0.38700
N1370       N  0.84480306  0.42276270  0.06559888    -0.38700
N1371       N  0.91330415  0.05395771  0.20250294    -0.38100
N1372       N  0.76249672  0.42397504  0.13709148    -0.38100
C1373       C  0.99750850  0.30874182  0.19149141    -0.04800
C1374       C  0.52187251  0.31488594  0.15717175    -0.01900
C1375       C  0.52241683  0.34675972  0.13304306     0.03100
C1376       C  0.99836549  0.37360509  0.14266615    -0.04800
C1377       C  0.97316618  0.36677421  0.17575137    -0.01900
C1378       C  0.97190644  0.33399030  0.19847472     0.03100
C1379       C  0.54508575  0.28714586  0.14455337     0.37800
C1380       C  0.94776286  0.39301831  0.18544850     0.37700
C1381       C  0.94267561  0.32541883  0.22582954     0.36200
C1382       C  0.54788428  0.35148729  0.09804923     0.36200
N1383       N  0.91811192  0.31902707  0.24555003    -0.38700
N1384       N  0.56812596  0.35436631  0.06989079    -0.38700
N1385       N  0.92746545  0.41396111  0.19315811    -0.38100
N1386       N  0.56298429  0.26471780  0.13379768    -0.38100
C1387       C  0.99534692  0.18246983  0.19952900    -0.04800
C1388       C  0.99794825  0.14828697  0.21783904    -0.01900
C1389       C  0.99397368  0.11813418  0.19024313     0.03100
C1390       C  0.98507939  0.12110989  0.14379412    -0.04800
C1391       C  0.97892253  0.15573945  0.12711347    -0.01900
C1392       C  0.98529343  0.18570444  0.15404998     0.03100
C1393       C  0.00256574  0.14382164  0.26616333     0.37800
C1394       C  0.96488323  0.16162406  0.08245421     0.37700
C1395       C  0.98199290  0.22006845  0.13396390     0.36200
C1396       C  0.99915670  0.08415413  0.21062290     0.36200
N1397       N  0.97896593  0.24709867  0.11703291    -0.38700
N1398       N  0.00337042  0.05719227  0.22730948    -0.38700
N1399       N  0.95344422  0.16698049  0.04716784    -0.38100
N1400       N  0.00555500  0.13978259  0.30473445    -0.38100
C1401       C  0.61350678  0.39855787  0.98718899    -0.04800
C1402       C  0.62006029  0.38323116  0.94467695    -0.01900
C1403       C  0.64620333  0.35869002  0.94019918     0.03100
C1404       C  0.66642530  0.35059084  0.97782714    -0.04800
C1405       C  0.66208920  0.36863345  0.01899883    -0.01900
C1406       C  0.63511948  0.39216307  0.02402159     0.03100
C1407       C  0.60010169  0.39300864  0.90560417     0.37800
C1408       C  0.68475067  0.36201079  0.05644181     0.37700
C1409       C  0.62847665  0.40820785  0.06764152     0.36200
C1410       C  0.65181320  0.34105093  0.89740316     0.36200
N1411       N  0.62292516  0.42055709  0.10262329    -0.38700
N1412       N  0.65630313  0.32693785  0.86329819    -0.38700
N1413       N  0.70312227  0.35690482  0.08602863    -0.38100
N1414       N  0.58442543  0.40116642  0.87440035    -0.38100
C1415       C  0.83862311  0.32253019  0.98170244    -0.04800
C1416       C  0.85566094  0.33543499  0.94312918    -0.01900
C1417       C  0.88275628  0.35869401  0.94834770     0.03100
C1418       C  0.89293754  0.36861053  0.99210214    -0.04800
C1419       C  0.87842771  0.35272722  0.03045257    -0.01900
C1420       C  0.85041029  0.33069579  0.02544648     0.03100
C1421       C  0.84444240  0.32581486  0.89822827     0.37800
C1422       C  0.89242471  0.35881588  0.07488572     0.37700
C1423       C  0.83346891  0.31668880  0.06521945     0.36200
C1424       C  0.89916892  0.37364152  0.90876874     0.36200
N1425       N  0.82000123  0.30531575  0.09682773    -0.38700
N1426       N  0.91194346  0.38578360  0.87714188    -0.38700
N1427       N  0.90355530  0.36302667  0.11052263    -0.38100
N1428       N  0.83536227  0.31826976  0.86241576    -0.38100
C1429       C  0.86439640  0.09633391  0.99062450    -0.04800
C1430       C  0.86080633  0.11584291  0.95044908    -0.01900
C1431       C  0.83450846  0.14017192  0.94668606     0.03100
C1432       C  0.81169118  0.14489010  0.98306414    -0.04800
C1433       C  0.81480995  0.12485599  0.02286941    -0.01900
C1434       C  0.84114676  0.10045584  0.02658914     0.03100
C1435       C  0.88466741  0.11156161  0.91336193     0.37800
C1436       C  0.79250542  0.13137493  0.06114793     0.37700
C1437       C  0.84572678  0.08155860  0.06860543     0.36200
C1438       C  0.83231778  0.16216524  0.90674062     0.36200
N1439       N  0.84928542  0.06690192  0.10246583    -0.38700
N1440       N  0.83089503  0.18011880  0.87529523    -0.38700
N1441       N  0.77471512  0.13692082  0.09154009    -0.38100
N1442       N  0.90365406  0.10846028  0.88371001    -0.38100
C1443       C  0.58552406  0.12390853  0.99894106    -0.04800
C1444       C  0.60022106  0.13587430  0.03933669    -0.01900
C1445       C  0.62695433  0.16000421  0.03731551     0.03100
C1446       C  0.63788677  0.17305437  0.99498736    -0.04800
C1447       C  0.62089131  0.16349919  0.95511490    -0.01900
C1448       C  0.59527959  0.13824125  0.95693959     0.03100
C1449       C  0.58823989  0.12281534  0.08271120     0.37800
C1450       C  0.63024916  0.17924164  0.91216695     0.37700
C1451       C  0.58022341  0.12564916  0.91542306     0.36200
C1452       C  0.64347077  0.17101499  0.07853757     0.36200
N1453       N  0.56854807  0.11531517  0.88226024    -0.38700
N1454       N  0.65645964  0.17973805  0.11160795    -0.38700
N1455       N  0.63746792  0.19206181  0.87797700    -0.38100
N1456       N  0.57864946  0.11240785  0.11726768    -0.38100
C1457       C  0.86738303  0.98916806  0.85709296    -0.04800
C1458       C  0.86309767  0.01304982  0.82102518    -0.01900
C1459       C  0.83164131  0.01616518  0.79817785     0.03100
C1460       C  0.80359550  0.49528089  0.81067258    -0.04800
C1461       C  0.80801357  0.47080949  0.84614152    -0.01900
C1462       C  0.83930771  0.46790404  0.86895874     0.03100
C1463       C  0.88994541  0.03708464  0.80987962     0.37800
C1464       C  0.78045996  0.44771609  0.85920516     0.37700
C1465       C  0.84127297  0.44359476  0.90645227     0.36200
C1466       C  0.82803191  0.04302710  0.76400790     0.36200
N1467       N  0.84125793  0.42472406  0.93698930    -0.38700
N1468       N  0.82625512  0.06488262  0.73710546    -0.38700
N1469       N  0.75868729  0.42911436  0.86945398    -0.38100
N1470       N  0.91072040  0.05705254  0.80076188    -0.38100
C1471       C  0.67220022  0.50687455  0.80662052    -0.04800
C1472       C  0.64136630  0.49580823  0.78629015    -0.01900
C1473       C  0.61055903  0.49509146  0.81128231     0.03100
C1474       C  0.60838937  0.00959926  0.85509107    -0.04800
C1475       C  0.63774247  0.02694552  0.87166429    -0.01900
C1476       C  0.66880893  0.02613297  0.84750210     0.03100
C1477       C  0.63998830  0.48757768  0.73845195     0.37800
C1478       C  0.63683023  0.04611044  0.91406595     0.37700
C1479       C  0.69646300  0.04710648  0.86456064     0.36200
C1480       C  0.58164263  0.47796014  0.79179657     0.36200
N1481       N  0.71802077  0.06373020  0.87963085    -0.38700
N1482       N  0.55915710  0.46378693  0.77528568    -0.38700
N1483       N  0.63731621  0.06111022  0.94798196    -0.38100
N1484       N  0.63790423  0.48115033  0.70033189    -0.38100
C1485       C  0.98709518  0.11998712  0.85199036    -0.04800
C1486       C  0.49587396  0.15337294  0.87078730    -0.01900
C1487       C  0.50351746  0.18219868  0.84268236     0.03100
C1488       C  0.99582623  0.18154272  0.79640723    -0.04800
C1489       C  0.98747301  0.14892675  0.77680771    -0.01900
C1490       C  0.98464268  0.11820613  0.80393277     0.03100
C1491       C  0.49819148  0.15913036  0.91918221     0.37800
C1492       C  0.98359668  0.14648276  0.72810274     0.37700
C1493       C  0.98083601  0.08492157  0.78143214     0.36200
C1494       C  0.52356265  0.21069541  0.86047411     0.36200
N1495       N  0.97849619  0.05855316  0.76270401    -0.38700
N1496       N  0.54040125  0.23280405  0.87443439    -0.38700
N1497       N  0.98045808  0.14415908  0.68931264    -0.38100
N1498       N  0.49971799  0.16452138  0.95763101    -0.38100
C1499       C  0.99252931  0.37255038  0.85391114    -0.04800
C1500       C  0.48532111  0.33823464  0.87088543    -0.01900
C1501       C  0.48543165  0.30871184  0.84185715     0.03100
C1502       C  0.99714306  0.31130369  0.79682163    -0.04800
C1503       C  0.00278154  0.34554500  0.77928511    -0.01900
C1504       C  0.99798934  0.37561043  0.80668199     0.03100
C1505       C  0.47665509  0.33229279  0.91811594     0.37800
C1506       C  0.01331530  0.35083222  0.73268488     0.37700
C1507       C  0.99631533  0.40945102  0.78499996     0.36200
C1508       C  0.47203064  0.27602746  0.85879917     0.36200
N1509       N  0.99336355  0.43611547  0.76710341    -0.38700
N1510       N  0.45986280  0.25085217  0.87308512    -0.38700
N1511       N  0.02286475  0.35627488  0.69626682    -0.38100
N1512       N  0.46995146  0.32637499  0.95553064    -0.38100
C1513       C  0.94057728  0.25262648  0.68820895    -0.04800
C1514       C  0.93475862  0.27886377  0.65526555    -0.01900
C1515       C  0.90273988  0.28257716  0.63464118     0.03100
C1516       C  0.87603482  0.25916089  0.64411172    -0.04800
C1517       C  0.88054081  0.23505484  0.67979536    -0.01900
C1518       C  0.91237842  0.23190946  0.70182365     0.03100
C1519       C  0.96138049  0.30286501  0.64237475     0.37800
C1520       C  0.85245595  0.21331720  0.69400259     0.37700
C1521       C  0.91565083  0.20663382  0.73793820     0.36200
C1522       C  0.89660471  0.31236853  0.60576364     0.36200
N1523       N  0.91709686  0.18668843  0.76727136    -0.38700
N1524       N  0.89200116  0.33691837  0.58400339    -0.38700
N1525       N  0.82999305  0.19624435  0.70591692    -0.38100
N1526       N  0.98221034  0.32200922  0.63059941    -0.38100
C1527       C  0.57322427  0.24219939  0.68787714    -0.04800
C1528       C  0.60411690  0.25377587  0.70799807    -0.01900
C1529       C  0.63514250  0.25330009  0.68348092     0.03100
C1530       C  0.63729733  0.23723871  0.64063412    -0.04800
C1531       C  0.60778655  0.21985022  0.62451149    -0.01900
C1532       C  0.57659568  0.22175899  0.64818878     0.03100
C1533       C  0.60541218  0.26298741  0.75554396     0.37800
C1534       C  0.60856147  0.19938400  0.58325661     0.37700
C1535       C  0.54879296  0.20010607  0.63292673     0.36200
C1536       C  0.66455135  0.27026143  0.70242741     0.36200
N1537       N  0.52696953  0.18261377  0.62038617    -0.38700
N1538       N  0.68785091  0.28406660  0.71761350    -0.38700
N1539       N  0.60729874  0.18316417  0.55037164    -0.38100
N1540       N  0.60657026  0.27023054  0.79351629    -0.38100
C1541       C  0.76319281  0.12704581  0.64476204    -0.04800
C1542       C  0.77189777  0.09291353  0.62848513    -0.01900
C1543       C  0.76644275  0.06261125  0.65527256     0.03100
C1544       C  0.75399279  0.06535234  0.69984655    -0.04800
C1545       C  0.74982936  0.09941100  0.71818839    -0.01900
C1546       C  0.75284423  0.12967178  0.69066984     0.03100
C1547       C  0.78698077  0.08805515  0.58407903     0.37800
C1548       C  0.74394052  0.10384310  0.76630095     0.37700
C1549       C  0.74386471  0.16322577  0.70994716     0.36200
C1550       C  0.77351305  0.02849314  0.63629883     0.36200
N1551       N  0.73638061  0.18984567  0.72547606    -0.38700
N1552       N  0.77967888  0.00152785  0.62077395    -0.38700
N1553       N  0.73972744  0.10827904  0.80462264    -0.38100
N1554       N  0.79907580  0.08374005  0.54879248    -0.38100
C1555       C  0.74781603  0.37431419  0.64278975    -0.04800
C1556       C  0.76467643  0.37606545  0.68488647    -0.01900
C1557       C  0.76508747  0.40758643  0.71042127     0.03100
C1558       C  0.74617940  0.43713677  0.69672384    -0.04800
C1559       C  0.72839640  0.43517848  0.65566139    -0.01900
C1560       C  0.73030336  0.40500149  0.62808522     0.03100
C1561       C  0.78268733  0.34582199  0.70173772     0.37800
C1562       C  0.70834863  0.46485733  0.64107802     0.37700
C1563       C  0.71475287  0.40689596  0.58379064     0.36200
C1564       C  0.78647313  0.40948624  0.74973000     0.36200
N1565       N  0.70296567  0.40982473  0.54825176    -0.38700
N1566       N  0.80508711  0.40928551  0.77969312    -0.38700
N1567       N  0.69246733  0.48845368  0.62915692    -0.38100
N1568       N  0.79688268  0.32176814  0.71575475    -0.38100
C1569       C  0.88179150  0.14814594  0.50900084    -0.04800
C1570       C  0.90489372  0.14213002  0.47329095    -0.01900
C1571       C  0.93168206  0.11838606  0.47906952     0.03100
C1572       C  0.93521575  0.10054939  0.52051758    -0.04800
C1573       C  0.91336740  0.10810687  0.55706274    -0.01900
C1574       C  0.88667510  0.13189073  0.55134562     0.04500
C1575       C  0.90034934  0.15924423  0.43006220     0.37800
C1576       C  0.91825466  0.09101983  0.60038931     0.37700
C1577       C  0.86444220  0.13980118  0.58918443     0.36200
C1578       C  0.95502589  0.11150696  0.44208764     0.36200
N1579       N  0.84691223  0.14598405  0.61961469    -0.38700
N1580       N  0.97367170  0.10614396  0.41257121    -0.38700
N1581       N  0.92232170  0.07742196  0.63491557    -0.38100
N1582       N  0.89689734  0.17267598  0.39535792    -0.38100
C1583       C  0.60781676  0.07809105  0.53259526    -0.04800
C1584       C  0.61720015  0.08587682  0.48753296    -0.01900
C1585       C  0.64395351  0.10901654  0.47897372     0.03100
C1586       C  0.66037105  0.12510938  0.51548477    -0.04800
C1587       C  0.65180804  0.11630973  0.56054097    -0.01900
C1588       C  0.62567977  0.09244203  0.56906366     0.03100
C1589       C  0.59881248  0.07051716  0.45021444     0.37800
C1590       C  0.66848356  0.13326907  0.59812619     0.37700
C1591       C  0.61632757  0.08341143  0.61518476     0.36200
C1592       C  0.65436966  0.11660257  0.43281902     0.36200
N1593       N  0.60871476  0.07609492  0.65186769    -0.38700
N1594       N  0.66282418  0.12249562  0.39602556    -0.38700
N1595       N  0.68120714  0.14697827  0.62839820    -0.38100
N1596       N  0.58392369  0.05820596  0.42070596    -0.38100
C1597       C  0.63638998  0.35070509  0.52257159    -0.04800
C1598       C  0.61355208  0.36124270  0.48894934    -0.01900
C1599       C  0.58855753  0.38611037  0.49924637     0.03100
C1600       C  0.58485610  0.39866936  0.54396350    -0.04800
C1601       C  0.60575045  0.38563130  0.57853576    -0.01900
C1602       C  0.63153680  0.36159967  0.56782675     0.03100
C1603       C  0.61594552  0.34670207  0.44373677     0.37800
C1604       C  0.60142295  0.39792933  0.62461158     0.37700
C1605       C  0.65266009  0.34757910  0.60341234     0.36200
C1606       C  0.56849866  0.40094149  0.46310887     0.36200
N1607       N  0.66929671  0.33623997  0.63191865    -0.38700
N1608       N  0.55297993  0.41327642  0.43415611    -0.38700
N1609       N  0.59793647  0.40772210  0.66137850    -0.38100
N1610       N  0.61761995  0.33484835  0.40779725    -0.38100
C1611       C  0.86274773  0.37333042  0.50410183    -0.04800
C1612       C  0.85713390  0.40266608  0.53237577    -0.01900
C1613       C  0.88381604  0.42588475  0.54179753     0.03100
C1614       C  0.91541827  0.42188098  0.51997940    -0.04800
C1615       C  0.92013873  0.39466600  0.48875706    -0.01900
C1616       C  0.89533579  0.36885569  0.48412015     0.03100
C1617       C  0.82515328  0.40750558  0.55562074     0.37800
C1618       C  0.95100703  0.39275521  0.46194638     0.37700
C1619       C  0.90573811  0.33609132  0.46397666     0.36200
C1620       C  0.87895913  0.45350810  0.57478149     0.36200
N1621       N  0.91535033  0.30963516  0.45020483    -0.38700
N1622       N  0.87499793  0.47557838  0.60095326    -0.38700
N1623       N  0.97551118  0.39134376  0.44045420    -0.38100
N1624       N  0.79996878  0.41213259  0.57472103    -0.38100
C1625       C  0.63594454  0.24330270  0.35721278    -0.04800
C1626       C  0.63396606  0.26027184  0.31490520    -0.01900
C1627       C  0.60317540  0.26078272  0.28986904     0.03100
C1628       C  0.57208056  0.24719847  0.30835627    -0.04800
C1629       C  0.57531782  0.22737478  0.34889206    -0.01900
C1630       C  0.60628506  0.22589558  0.37299891     0.03100
C1631       C  0.66356906  0.27806862  0.29705489     0.37800
C1632       C  0.54737561  0.20643470  0.36565960     0.37700
C1633       C  0.60720603  0.20533786  0.41429477     0.36200
C1634       C  0.60543970  0.27318359  0.24367141     0.36200
N1635       N  0.60726979  0.18913145  0.44733131    -0.38700
N1636       N  0.60889483  0.28350590  0.20713343    -0.38700
N1637       N  0.52545096  0.18972530  0.38004524    -0.38100
N1638       N  0.68704026  0.29240057  0.28270421    -0.38100
C1639       C  0.93932271  0.25176667  0.30728890    -0.04800
C1640       C  0.91401186  0.22625872  0.29901895    -0.01900
C1641       C  0.88149849  0.22881254  0.31974568     0.03100
C1642       C  0.87323034  0.25762127  0.34727175    -0.04800
C1643       C  0.89632663  0.28547001  0.34909876    -0.01900
C1644       C  0.92998521  0.28139724  0.33324111     0.03100
C1645       C  0.92131187  0.19640502  0.27077418     0.37800
C1646       C  0.88378499  0.31966476  0.36149174     0.37700
C1647       C  0.95455454  0.30829389  0.34303982     0.36200
C1648       C  0.85643095  0.20187430  0.31250650     0.36200
N1649       N  0.97420267  0.32954024  0.35172286    -0.38700
N1650       N  0.83635161  0.18050640  0.30641752    -0.38700
N1651       N  0.87330849  0.34711945  0.36979211    -0.38100
N1652       N  0.92571829  0.17219196  0.24822272    -0.38100
C1653       C  0.74716746  0.43669944  0.30380684    -0.04800
C1654       C  0.72506498  0.43177215  0.34079429    -0.01900
C1655       C  0.72453256  0.39991597  0.36482460     0.03100
C1656       C  0.74692873  0.37221006  0.35319763    -0.04800
C1657       C  0.77016473  0.37774720  0.31721546    -0.01900
C1658       C  0.77086575  0.41013376  0.29355792     0.03100
C1659       C  0.70395570  0.46059170  0.35575511     0.37800
C1660       C  0.79406897  0.35058645  0.30512723     0.37700
C1661       C  0.79761727  0.41669118  0.26110445     0.36200
C1662       C  0.70036459  0.39607369  0.40161262     0.36200
N1663       N  0.82027068  0.42115157  0.23686549    -0.38700
N1664       N  0.68107127  0.39396030  0.43105242    -0.38700
N1665       N  0.81304650  0.32895890  0.29494433    -0.38100
N1666       N  0.68776255  0.48387165  0.36815508    -0.38100
C1667       C  0.76304239  0.12545904  0.35412434    -0.04800
C1668       C  0.77017148  0.09099724  0.37053988    -0.01900
C1669       C  0.76355309  0.06088765  0.34401196     0.03100
C1670       C  0.75119210  0.06397102  0.29953520    -0.04800
C1671       C  0.74770357  0.09819940  0.28134566    -0.01900
C1672       C  0.75330893  0.12838874  0.30818044     0.03100
C1673       C  0.78541270  0.08557962  0.41450117     0.37800
C1674       C  0.73913515  0.10311147  0.23420272     0.37700
C1675       C  0.74927437  0.16247398  0.28751810     0.36200
C1676       C  0.76900046  0.02659400  0.36349634     0.36200
N1677       N  0.74629972  0.18959064  0.27076680    -0.38700
N1678       N  0.77385327  0.99956971  0.37967952    -0.38700
N1679       N  0.73228392  0.10854302  0.19688706    -0.38100
N1680       N  0.79772758  0.08069216  0.44932659    -0.38100
O1681       O  0.76072362  0.68894969  0.37023309    -0.85900
O1682       O  0.76185929  0.69053488  0.62857249    -0.86100
O1683       O  0.82308083  0.65860123  0.50317052    -0.87800
O1684       O  0.71556196  0.64593789  0.50509786    -0.86500
O1685       O  0.67131386  0.68445974  0.50405467    -0.86100
O1686       O  0.85977899  0.70465690  0.49909169    -0.87500
O1687       O  0.76396858  0.65136781  0.57059002    -0.85900
O1688       O  0.76576328  0.65005004  0.42829078    -0.85500
Zr1689     Zr  0.76545126  0.68144217  0.49893373     2.84300
O1690       O  0.72865424  0.71269030  0.54591793    -1.07500
O1691       O  0.79472012  0.71857657  0.45001982    -1.08200
C1692       C  0.76360683  0.65715778  0.38587533     1.07200
C1693       C  0.76320279  0.65868272  0.61300232     1.07100
C1694       C  0.85300209  0.67201132  0.50279399     1.10100
C1695       C  0.68404008  0.65364469  0.50707374     1.07900
H1696       H  0.81049804  0.70581413  0.56433474     0.33500
O1697       O  0.79500614  0.71912419  0.54603332    -1.28500
H1698       H  0.71407381  0.69508689  0.43439649     0.33100
O1699       O  0.72756112  0.71127387  0.45159438    -1.30100
O1700       O  0.75239980  0.81088320  0.62787460    -0.85900
O1701       O  0.75228918  0.80925904  0.36814070    -0.87400
O1702       O  0.85356805  0.75868902  0.57008484    -0.86000
O1703       O  0.66165680  0.74100506  0.56833612    -0.86000
O1704       O  0.66110544  0.74522402  0.42948136    -0.85800
O1705       O  0.85235227  0.75876489  0.42257373    -0.85600
O1706       O  0.80504586  0.85333184  0.49876295    -0.85900
O1707       O  0.69462710  0.84131904  0.50734496    -0.85400
O1708       O  0.84805327  0.81383065  0.50095239    -0.86500
O1709       O  0.65793784  0.79511019  0.50712509    -0.85600
O1710       O  0.81535371  0.75472698  0.62889088    -0.86000
O1711       O  0.81334365  0.75242270  0.36566045    -0.85700
O1712       O  0.69804509  0.74585032  0.36970175    -0.85400
O1713       O  0.69893308  0.74340465  0.62710815    -0.85800
O1714       O  0.75219332  0.85006828  0.56927851    -0.86100
O1715       O  0.74923821  0.84878107  0.42645248    -0.87400
Zr1716     Zr  0.75795260  0.75041775  0.59454001     2.83100
Zr1717     Zr  0.75676398  0.74950795  0.40265274     2.83500
Zr1718     Zr  0.82478733  0.75620378  0.49715970     2.84100
Zr1719     Zr  0.69247334  0.74375906  0.49892927     2.83400
Zr1720     Zr  0.75251909  0.81917681  0.49833814     2.84200
O1721       O  0.72131436  0.78215858  0.45123290    -1.08000
O1722       O  0.78867663  0.78755558  0.54513432    -1.07500
C1723       C  0.75101749  0.84270643  0.61173245     1.07200
C1724       C  0.74958487  0.84092878  0.38409227     1.09800
C1725       C  0.84600346  0.75753583  0.61275363     1.07300
C1726       C  0.66835583  0.74061241  0.61065708     1.07700
C1727       C  0.66742846  0.74495719  0.38679047     1.07300
C1728       C  0.84406214  0.75621434  0.38035747     1.06800
C1729       C  0.83674069  0.84517607  0.50073632     1.07300
C1730       C  0.66485128  0.82765734  0.51086469     1.06800
H1731       H  0.80111953  0.80325666  0.43175779     0.33400
O1732       O  0.78810929  0.78731129  0.45018445    -1.29100
H1733       H  0.70694493  0.79453452  0.56495420     0.33500
O1734       O  0.72234106  0.78151721  0.54593799    -1.30500
N1735       N  0.96051426  0.00753676  0.53130282    -0.36000
N1736       N  0.50445831  0.94819312  0.54485950    -0.56600
N1737       N  0.56216657  0.99367910  0.55211965    -0.36000
N1738       N  0.51754845  0.55315671  0.53597220    -0.56600
C1739       C  0.94052804  0.98134437  0.51706066     0.27500
C1740       C  0.94723112  0.53736304  0.51501715     0.27600
C1741       C  0.57789109  0.96266983  0.54671704     0.27500
C1742       C  0.58484692  0.51855019  0.54093217     0.27500
C1743       C  0.97413327  0.93224166  0.54782968     0.36200
C1744       C  0.52787515  0.92460247  0.55756401     0.36200
C1745       C  0.99297222  0.57747558  0.53676829     0.36200
C1746       C  0.54657313  0.57000248  0.54472942     0.36200
C1747       C  0.91429032  0.99474064  0.49138080    -0.21300
C1748       C  0.91825062  0.53019165  0.49071188    -0.21300
C1749       C  0.61138625  0.96804993  0.53436212    -0.21300
C1750       C  0.61573685  0.50333658  0.53053588    -0.21300
C1751       C  0.97829434  0.89844197  0.56372435    -0.22400
C1752       C  0.51252129  0.89345402  0.56926884    -0.22400
C1753       C  0.00626490  0.60998189  0.54629081    -0.22400
C1754       C  0.54041056  0.60524143  0.55134586    -0.22400
C1755       C  0.94390845  0.94608931  0.52977382    -0.17700
C1756       C  0.95939749  0.57102152  0.52425114    -0.17700
C1757       C  0.57878414  0.55472387  0.54112460    -0.17700
C1758       C  0.56293734  0.92958149  0.55250201    -0.17700
H1759       H  0.89391552  0.98049399  0.47566899     0.15200
H1760       H  0.90164480  0.54862866  0.47425006     0.15200
H1761       H  0.63064848  0.94859590  0.52793751     0.15200
H1762       H  0.63903629  0.51628200  0.52112349     0.15200
H1763       H  0.95891963  0.87887637  0.56857951     0.13500
H1764       H  0.52479982  0.86946998  0.57932413     0.13500
H1765       H  0.99293283  0.63459678  0.54795561     0.13500
H1766       H  0.55873684  0.62554595  0.55762551     0.13500
H1767       H  0.97947867  0.00561524  0.55538988     0.26700
H1768       H  0.53807895  0.99778056  0.56526365     0.26700
O1769       O  0.99063641  0.93593554  0.86987330    -0.85900
O1770       O  0.99327427  0.93666251  0.12839039    -0.86100
O1771       O  0.55485066  0.90723724  0.99299204    -0.87800
O1772       O  0.94762405  0.89168407  0.99781205    -0.86500
O1773       O  0.90225905  0.92880117  0.99862164    -0.86100
O1774       O  0.59028129  0.95426510  0.99665741    -0.87500
O1775       O  0.99842963  0.89775760  0.06960756    -0.85900
O1776       O  0.99791974  0.89705058  0.92766102    -0.85500
Zr1777     Zr  0.99692836  0.92843801  0.99842462     2.84300
O1778       O  0.95969979  0.95832166  0.04669746    -1.07500
O1779       O  0.52596698  0.96644810  0.95041490    -1.08200
C1780       C  0.99377051  0.90414001  0.88550330     1.07200
C1781       C  0.99668595  0.90514233  0.11203714     1.07100
C1782       C  0.58430989  0.92153341  0.99322997     1.10100
C1783       C  0.91584971  0.89826252  0.99717693     1.07900
H1784       H  0.54209471  0.95271324  0.06436634     0.33500
O1785       O  0.52606881  0.96590493  0.04672463    -1.28500
H1786       H  0.94618852  0.94233432  0.93411648     0.33100
O1787       O  0.95921622  0.95851474  0.95183108    -1.30100
O1788       O  0.98611320  0.55749343  0.12789156    -0.85900
O1789       O  0.98693833  0.55624476  0.86696587    -0.87400
O1790       O  0.58532450  0.00639799  0.06818757    -0.86000
O1791       O  0.89290700  0.98760537  0.07136310    -0.86000
O1792       O  0.89196647  0.48788813  0.92963306    -0.85800
O1793       O  0.58363974  0.50599179  0.92758626    -0.85600
O1794       O  0.53036247  0.60127957  0.99819972    -0.85900
O1795       O  0.92294548  0.58695162  0.99514166    -0.85400
O1796       O  0.57530619  0.56377289  0.00104937    -0.86500
O1797       O  0.88723010  0.53998517  0.99743345    -0.85600
O1798       O  0.54761739  0.00336456  0.12717208    -0.86000
O1799       O  0.54672920  0.50245094  0.86854677    -0.85700
O1800       O  0.92921437  0.49345703  0.87019856    -0.85400
O1801       O  0.93049868  0.99262689  0.12977179    -0.85800
O1802       O  0.98099871  0.59618404  0.06956474    -0.86100
O1803       O  0.97936481  0.59454615  0.92517159    -0.87400
Zr1804     Zr  0.98882396  0.99700062  0.09504174     2.83100
Zr1805     Zr  0.98830774  0.49664135  0.90234762     2.83500
Zr1806     Zr  0.55418986  0.00465031  0.99868714     2.84100
Zr1807     Zr  0.92256444  0.98865544  0.99993558     2.83400
Zr1808     Zr  0.98035913  0.56519585  0.99805945     2.84200
O1809       O  0.95108729  0.52693287  0.95129499    -1.08000
O1810       O  0.51739725  0.53528277  0.04556852    -1.07500
C1811       C  0.98367897  0.58927770  0.11208649     1.07200
C1812       C  0.98395387  0.58788277  0.88284425     1.09800
C1813       C  0.57836925  0.00605570  0.11070930     1.07300
C1814       C  0.89989025  0.98931065  0.11375688     1.07700
C1815       C  0.89864463  0.49005713  0.88704597     1.07300
C1816       C  0.57717562  0.50574779  0.88511084     1.06800
C1817       C  0.56209552  0.59439730  0.99992289     1.07300
C1818       C  0.89344297  0.57282217  0.99485299     1.06800
H1819       H  0.53083275  0.55120806  0.93306374     0.33400
O1820       O  0.51769801  0.53494101  0.95088781    -1.29100
H1821       H  0.93549459  0.54095235  0.06471088     0.33500
O1822       O  0.95131428  0.52752655  0.04682231    -1.30500
N1823       N  0.68784424  0.75549247  0.98086347    -0.36000
N1824       N  0.74714144  0.79987062  0.97391734    -0.56600
N1825       N  0.78934610  0.73896570  0.97551176    -0.36000
N1826       N  0.73017539  0.69449483  0.98489988    -0.56600
C1827       C  0.67377423  0.78712357  0.98761834     0.27500
C1828       C  0.66486811  0.73146283  0.99429058     0.27600
C1829       C  0.81263395  0.76383810  0.98386250     0.27500
C1830       C  0.80342031  0.70824368  0.98710356     0.27500
C1831       C  0.72330164  0.82442921  0.96764702     0.36200
C1832       C  0.77717625  0.81570219  0.96753817     0.36200
C1833       C  0.69995811  0.67843352  0.98300558     0.36200
C1834       C  0.75367549  0.66968189  0.97759096     0.36200
C1835       C  0.64126013  0.78309616  0.00482497    -0.21300
C1836       C  0.63565127  0.74794735  0.00896606    -0.21300
C1837       C  0.84203244  0.74856482  0.99982275    -0.21300
C1838       C  0.83610442  0.71351330  0.00225424    -0.21300
C1839       C  0.73817257  0.85612165  0.95698261    -0.22400
C1840       C  0.77243512  0.85063329  0.95721137    -0.22400
C1841       C  0.70426806  0.64305359  0.97518009    -0.22400
C1842       C  0.73844432  0.63754278  0.97141268    -0.22400
C1843       C  0.68869792  0.81954584  0.97670012    -0.17700
C1844       C  0.66871927  0.69504065  0.99088492    -0.17700
C1845       C  0.78864911  0.67522606  0.98116935    -0.17700
C1846       C  0.80859132  0.79984027  0.97604759    -0.17700
H1847       H  0.62323986  0.80335308  0.01322229     0.15200
H1848       H  0.61256156  0.73591930  0.02104444     0.15200
H1849       H  0.86549662  0.76119550  0.00866622     0.15200
H1850       H  0.85404593  0.69404900  0.01339774     0.15200
H1851       H  0.72570150  0.88087441  0.95146197     0.13500
H1852       H  0.79157837  0.87033241  0.95178558     0.13500
H1853       H  0.68489282  0.62324376  0.97298155     0.13500
H1854       H  0.75070551  0.61263668  0.96609735     0.13500
H1855       H  0.71011104  0.75066833  0.96324434     0.26700
H1856       H  0.76682832  0.74209297  0.95811653     0.26700
C1857       C  0.53726798  0.74860252  0.28205897     0.87100
C1858       C  0.53308752  0.71617281  0.25212781    -0.53200
C1859       C  0.00388302  0.71442427  0.22781703     0.10000
C1860       C  0.98099044  0.74716684  0.23456808     0.20900
C1861       C  0.53236179  0.77987475  0.25012795    -0.53900
C1862       C  0.00380748  0.77937219  0.22469823     0.10100
C1863       C  0.00390986  0.75016749  0.31080565    -0.53400
C1864       C  0.97440447  0.74884691  0.28623577     0.10700
H1865       H  0.55198954  0.69564696  0.25089682     0.15200
H1866       H  0.95742016  0.74680119  0.21446033     0.00900
H1867       H  0.54895997  0.80232007  0.24946188     0.15500
H1868       H  0.00346622  0.75365262  0.34720415     0.15300
C1869       C  0.70706736  0.99975387  0.21709511     0.87100
C1870       C  0.71178874  0.96733322  0.24715103    -0.53200
C1871       C  0.74063307  0.96676539  0.27221753     0.10000
C1872       C  0.76367784  0.99886872  0.26381674     0.20900
C1873       C  0.71173842  0.53108568  0.24870288    -0.53900
C1874       C  0.74137448  0.53199697  0.27218448     0.10100
C1875       C  0.74009135  0.99871523  0.18807789    -0.53400
C1876       C  0.76987378  0.99831093  0.21216949     0.10700
H1877       H  0.69505344  0.94500179  0.24677916     0.15200
H1878       H  0.78725573  0.99786511  0.28375615     0.00900
H1879       H  0.69305562  0.55176735  0.25107915     0.15500
H1880       H  0.73999324  0.99669503  0.15151535     0.15300
C1881       C  0.53824514  0.74506298  0.71305554     0.87100
C1882       C  0.53451217  0.77698230  0.74413601    -0.53200
C1883       C  0.00548532  0.77880261  0.76896425     0.10000
C1884       C  0.98211753  0.74657070  0.76061665     0.20900
C1885       C  0.53306614  0.71330319  0.74320001    -0.53900
C1886       C  0.00416502  0.71300271  0.76745302     0.10100
C1887       C  0.00539941  0.74745431  0.68427731    -0.53400
C1888       C  0.97561342  0.74797834  0.70905079     0.10700
H1889       H  0.55274185  0.79799647  0.74434024     0.15200
H1890       H  0.95852101  0.74706231  0.78081550     0.00900
H1891       H  0.55105449  0.69189745  0.74445279     0.15500
H1892       H  0.00558696  0.74966846  0.64770362     0.15300
C1893       C  0.70699468  0.00300402  0.78161025     0.87100
C1894       C  0.71313909  0.53364009  0.74980113    -0.53200
C1895       C  0.74316275  0.53343347  0.72687480     0.10000
C1896       C  0.76420325  0.99947842  0.73585757     0.20900
C1897       C  0.71082395  0.97008310  0.75223154    -0.53900
C1898       C  0.74010160  0.96793895  0.72775743     0.10100
C1899       C  0.73926922  0.00117841  0.81121118    -0.53400
C1900       C  0.76939325  0.99937195  0.78771993     0.10700
H1901       H  0.69517926  0.55496332  0.74700124     0.15200
H1902       H  0.78820354  0.99762473  0.71647545     0.00900
H1903       H  0.69240260  0.94915598  0.75179867     0.15500
H1904       H  0.73847689  0.99984774  0.84777201     0.15300
C1905       C  0.60922427  0.00800722  0.14132008    -0.04800
C1906       C  0.61080747  0.48996368  0.18275433    -0.01900
C1907       C  0.64129063  0.48856929  0.20827470     0.03100
C1908       C  0.67240379  0.00258857  0.19101398    -0.04800
C1909       C  0.66952806  0.02401996  0.15181258    -0.01900
C1910       C  0.63893651  0.02605970  0.12702067     0.03100
C1911       C  0.58111295  0.47145446  0.19890478     0.37800
C1912       C  0.69764992  0.04543350  0.13662786     0.37700
C1913       C  0.63892630  0.04716447  0.08615972     0.36200
C1914       C  0.63892543  0.47459837  0.25374846     0.36200
N1915       N  0.64049770  0.06381571  0.05354627    -0.38700
N1916       N  0.63618668  0.46319342  0.28987037    -0.38700
N1917       N  0.71977792  0.06227647  0.12310485    -0.38100
N1918       N  0.55736179  0.45660784  0.21137798    -0.38100
C1919       C  0.80456583  0.99410095  0.19023809    -0.04800
C1920       C  0.80976169  0.96887659  0.15593772    -0.01900
C1921       C  0.84113999  0.96633526  0.13286639     0.03100
C1922       C  0.86902874  0.98796034  0.14453202    -0.04800
C1923       C  0.86448900  0.51192903  0.18070917    -0.01900
C1924       C  0.83262055  0.51500708  0.20319937     0.03100
C1925       C  0.78332606  0.94386860  0.14558862     0.37800
C1926       C  0.89165359  0.53549362  0.19252329     0.37700
C1927       C  0.82878541  0.54085427  0.23854403     0.36200
C1928       C  0.84373024  0.94182385  0.09565817     0.36200
N1929       N  0.82657320  0.56150243  0.26691283    -0.38700
N1930       N  0.84450792  0.92279218  0.06536222    -0.38700
N1931       N  0.91304416  0.55464126  0.20198205    -0.38100
N1932       N  0.76247513  0.92373100  0.13745027    -0.38100
C1933       C  0.99769051  0.80878046  0.19159724    -0.04800
C1934       C  0.52165803  0.81487160  0.15704273    -0.01900
C1935       C  0.52216483  0.84675428  0.13295200     0.03100
C1936       C  0.99862601  0.87363278  0.14271217    -0.04800
C1937       C  0.97341349  0.86683486  0.17578703    -0.01900
C1938       C  0.97213104  0.83407533  0.19856675     0.03100
C1939       C  0.54490208  0.78716185  0.14440848     0.37800
C1940       C  0.94800820  0.89309386  0.18539739     0.37700
C1941       C  0.94292327  0.82558445  0.22600363     0.36200
C1942       C  0.54765471  0.85154084  0.09800162     0.36200
N1943       N  0.91838082  0.81926233  0.24580827    -0.38700
N1944       N  0.56792333  0.85448360  0.06988983    -0.38700
N1945       N  0.92772719  0.91406918  0.19303033    -0.38100
N1946       N  0.56282744  0.76475097  0.13367415    -0.38100
C1947       C  0.99541042  0.68246099  0.19948848    -0.04800
C1948       C  0.99802511  0.64828093  0.21780410    -0.01900
C1949       C  0.99405778  0.61812570  0.19021412     0.03100
C1950       C  0.98510974  0.62109442  0.14378209    -0.04800
C1951       C  0.97892510  0.65571823  0.12710534    -0.01900
C1952       C  0.98533888  0.68568852  0.15401466     0.03100
C1953       C  0.00266276  0.64382504  0.26612905     0.37800
C1954       C  0.96480724  0.66158232  0.08248561     0.37700
C1955       C  0.98208466  0.72004819  0.13390461     0.36200
C1956       C  0.99932409  0.58415537  0.21058231     0.36200
N1957       N  0.97911181  0.74708335  0.11696898    -0.38700
N1958       N  0.00361519  0.55720919  0.22727561    -0.38700
N1959       N  0.95330347  0.66689981  0.04722706    -0.38100
N1960       N  0.00567779  0.63981998  0.30470311    -0.38100
C1961       C  0.61367685  0.89865074  0.98777845    -0.04800
C1962       C  0.62033460  0.88349373  0.94519670    -0.01900
C1963       C  0.64639343  0.85886843  0.94070524     0.03100
C1964       C  0.66644245  0.85052238  0.97840182    -0.04800
C1965       C  0.66207961  0.86845020  0.01965248    -0.01900
C1966       C  0.63520553  0.89210604  0.02466285     0.03100
C1967       C  0.60062579  0.89361419  0.90604180     0.37800
C1968       C  0.68465069  0.86162846  0.05713615     0.37700
C1969       C  0.62866139  0.90823863  0.06824973     0.36200
C1970       C  0.65213294  0.84144316  0.89779150     0.36200
N1971       N  0.62324327  0.92069810  0.10320145    -0.38700
N1972       N  0.65674284  0.82750296  0.86359433    -0.38700
N1973       N  0.70295761  0.85635139  0.08674609    -0.38100
N1974       N  0.58515733  0.90208213  0.87478940    -0.38100
C1975       C  0.83861365  0.82258232  0.98132138    -0.04800
C1976       C  0.85568076  0.83552345  0.94279628    -0.01900
C1977       C  0.88277444  0.85876616  0.94810376     0.03100
C1978       C  0.89288053  0.86866755  0.99189827    -0.04800
C1979       C  0.87831700  0.85278097  0.03020739    -0.01900
C1980       C  0.85034437  0.83070907  0.02510401     0.03100
C1981       C  0.84449626  0.82595846  0.89785693     0.37800
C1982       C  0.89220093  0.85893708  0.07469837     0.37700
C1983       C  0.83340252  0.81659738  0.06481173     0.36200
C1984       C  0.89924004  0.87372914  0.90857311     0.36200
N1985       N  0.81993836  0.80512441  0.09636109    -0.38700
N1986       N  0.91204653  0.88587065  0.87696910    -0.38700
N1987       N  0.90324629  0.86323586  0.11036924    -0.38100
N1988       N  0.83545096  0.81846197  0.86201051    -0.38100
C1989       C  0.86446933  0.59632162  0.98982530    -0.04800
C1990       C  0.86131437  0.61613158  0.94981887    -0.01900
C1991       C  0.83504162  0.64046525  0.94581780     0.03100
C1992       C  0.81183369  0.64492975  0.98180739    -0.04800
C1993       C  0.81451578  0.62459659  0.02142009    -0.01900
C1994       C  0.84077070  0.60012128  0.02532933     0.03100
C1995       C  0.88551714  0.61208181  0.91308641     0.37800
C1996       C  0.79182019  0.63086353  0.05936006     0.37700
C1997       C  0.84471780  0.58072864  0.06708719     0.36200
C1998       C  0.83326451  0.66271166  0.90606431     0.36200
N1999       N  0.84771035  0.56563895  0.10073093    -0.38700
N2000       N  0.83218169  0.68085918  0.87477919    -0.38700
N2001       N  0.77370390  0.63622641  0.08946242    -0.38100
N2002       N  0.90472907  0.60917825  0.88366197    -0.38100
C2003       C  0.58561955  0.62383184  0.99882930    -0.04800
C2004       C  0.60061217  0.63564895  0.03910404    -0.01900
C2005       C  0.62739954  0.65971221  0.03688392     0.03100
C2006       C  0.63808069  0.67287457  0.99449709    -0.04800
C2007       C  0.62081220  0.66345672  0.95478317    -0.01900
C2008       C  0.59517239  0.63823291  0.95678365     0.03100
C2009       C  0.58881862  0.62257914  0.08256156     0.37800
C2010       C  0.62988818  0.67933094  0.91181190     0.37700
C2011       C  0.57989081  0.62572689  0.91537509     0.36200
C2012       C  0.64420730  0.67056434  0.07796482     0.36200
N2013       N  0.56804272  0.61545222  0.88229338    -0.38700
N2014       N  0.65743018  0.67915956  0.11092382    -0.38700
N2015       N  0.63686786  0.69225774  0.87760248    -0.38100
N2016       N  0.57936071  0.61220301  0.11719858    -0.38100
C2017       C  0.86754022  0.48917627  0.85696282    -0.04800
C2018       C  0.86321059  0.51308300  0.82092989    -0.01900
C2019       C  0.83171232  0.51622478  0.79818862     0.03100
C2020       C  0.80347802  0.99530335  0.81069977    -0.04800
C2021       C  0.80782659  0.97090086  0.84627090    -0.01900
C2022       C  0.83912348  0.96793263  0.86907639     0.03100
C2023       C  0.89004776  0.53712094  0.80972367     0.37800
C2024       C  0.78019333  0.94795005  0.85946541     0.37700
C2025       C  0.84108678  0.94354635  0.90648270     0.36200
C2026       C  0.82799472  0.54322248  0.76422090     0.36200
N2027       N  0.84106193  0.92457909  0.93691806    -0.38700
N2028       N  0.82611858  0.56520450  0.73750576    -0.38700
N2029       N  0.75834496  0.92947769  0.86982420    -0.38100
N2030       N  0.91080399  0.55709181  0.80052996    -0.38100
C2031       C  0.67212695  0.00699862  0.80653449    -0.04800
C2032       C  0.64130936  0.99582884  0.78626134    -0.01900
C2033       C  0.61052669  0.99508164  0.81128905     0.03100
C2034       C  0.60840057  0.50957979  0.85509883    -0.04800
C2035       C  0.63780212  0.52681320  0.87175289    -0.01900
C2036       C  0.66889225  0.52594735  0.84763607     0.03100
C2037       C  0.63992824  0.98747610  0.73845708     0.37800
C2038       C  0.63693065  0.54591377  0.91420010     0.37700
C2039       C  0.69659260  0.54682273  0.86477578     0.36200
C2040       C  0.58161551  0.97790483  0.79184739     0.36200
N2041       N  0.71820797  0.56336082  0.87986002    -0.38700
N2042       N  0.55913636  0.96370560  0.77535677    -0.38700
N2043       N  0.63745750  0.56086332  0.94815026    -0.38100
N2044       N  0.63785987  0.98092448  0.70037115    -0.38100
C2045       C  0.98749120  0.61997241  0.85198223    -0.04800
C2046       C  0.49547845  0.65339801  0.87084061    -0.01900
C2047       C  0.50310125  0.68223984  0.84275454     0.03100
C2048       C  0.99615593  0.68153660  0.79638374    -0.04800
C2049       C  0.98787089  0.64889695  0.77679247    -0.01900
C2050       C  0.98502878  0.61818443  0.80392943     0.03100
C2051       C  0.49788659  0.65911668  0.91923641     0.37800
C2052       C  0.98405301  0.64641723  0.72808427     0.37700
C2053       C  0.98112265  0.58490436  0.78144754     0.36200
C2054       C  0.52304557  0.71079147  0.86060082     0.36200
N2055       N  0.97868922  0.55854347  0.76272474    -0.38700
N2056       N  0.53979448  0.73295363  0.87461073    -0.38700
N2057       N  0.98095241  0.64404206  0.68929500    -0.38100
N2058       N  0.49951785  0.66447356  0.95768444    -0.38100
C2059       C  0.99246008  0.87252067  0.85393534    -0.04800
C2060       C  0.48530921  0.83830932  0.87084812    -0.01900
C2061       C  0.48530591  0.80878096  0.84183807     0.03100
C2062       C  0.99720643  0.81131815  0.79676853    -0.04800
C2063       C  0.00284923  0.84558492  0.77929967    -0.01900
C2064       C  0.99798445  0.87562106  0.80672673     0.03100
C2065       C  0.47668626  0.83240537  0.91809982     0.37800
C2066       C  0.01351917  0.85093724  0.73276519     0.37700
C2067       C  0.99632724  0.90948405  0.78510036     0.36200
C2068       C  0.47171903  0.77617864  0.85877784     0.36200
N2069       N  0.99338775  0.93618042  0.76728114    -0.38700
N2070       N  0.45939489  0.75108588  0.87307021    -0.38700
N2071       N  0.02320253  0.85642416  0.69641963    -0.38100
N2072       N  0.47001513  0.82652753  0.95553473    -0.38100
C2073       C  0.94063432  0.75255466  0.68821315    -0.04800
C2074       C  0.93468197  0.77893977  0.65551340    -0.01900
C2075       C  0.90262355  0.78263626  0.63496303     0.03100
C2076       C  0.87600418  0.75907635  0.64427720    -0.04800
C2077       C  0.88064486  0.73480117  0.67974361    -0.01900
C2078       C  0.91252402  0.73166447  0.70168791     0.03100
C2079       C  0.96120193  0.80311822  0.64282750     0.37800
C2080       C  0.85266020  0.71287927  0.69381721     0.37700
C2081       C  0.91594385  0.70622715  0.73758262     0.36200
C2082       C  0.89635159  0.81252953  0.60631103     0.36200
N2083       N  0.91751358  0.68614260  0.76674162    -0.38700
N2084       N  0.89161409  0.83714543  0.58472525    -0.38700
N2085       N  0.83029062  0.69564532  0.70565378    -0.38100
N2086       N  0.98193140  0.82243822  0.63122622    -0.38100
C2087       C  0.57309367  0.74210995  0.68796162    -0.04800
C2088       C  0.60397475  0.75368124  0.70810336    -0.01900
C2089       C  0.63498782  0.75335421  0.68354198     0.03100
C2090       C  0.63717317  0.73737006  0.64063951    -0.04800
C2091       C  0.60766824  0.71998920  0.62445866    -0.01900
C2092       C  0.57647463  0.72179971  0.64816058     0.03100
C2093       C  0.60525724  0.76276962  0.75569235     0.37800
C2094       C  0.60844536  0.69964856  0.58309613     0.37700
C2095       C  0.54867553  0.70019450  0.63277513     0.36200
C2096       C  0.66431603  0.77047669  0.70245984     0.36200
N2097       N  0.52684217  0.68275854  0.62013283    -0.38700
N2098       N  0.68752418  0.78445191  0.71763516    -0.38700
N2099       N  0.60720250  0.68353126  0.55012329    -0.38100
N2100       N  0.60638482  0.76991116  0.79369960    -0.38100
C2101       C  0.76305593  0.62714608  0.64482448    -0.04800
C2102       C  0.77182714  0.59301675  0.62861113    -0.01900
C2103       C  0.76648022  0.56273897  0.65547764     0.03100
C2104       C  0.75394913  0.56548372  0.70001637    -0.04800
C2105       C  0.74956263  0.59956550  0.71824607    -0.01900
C2106       C  0.75257572  0.62980032  0.69067224     0.03100
C2107       C  0.78674795  0.58811784  0.58411121     0.37800
C2108       C  0.74333403  0.60407650  0.76627733     0.37700
C2109       C  0.74337704  0.66335841  0.70977208     0.36200
C2110       C  0.77367572  0.52862635  0.63657199     0.36200
N2111       N  0.73571592  0.68999896  0.72508923    -0.38700
N2112       N  0.77993440  0.50166593  0.62109918    -0.38700
N2113       N  0.73878363  0.60859973  0.80451777    -0.38100
N2114       N  0.79866439  0.58377856  0.54872146    -0.38100
C2115       C  0.74769254  0.87433185  0.64277014    -0.04800
C2116       C  0.76429400  0.87596231  0.68506654    -0.01900
C2117       C  0.76474171  0.90747301  0.71060081     0.03100
C2118       C  0.74600814  0.93709564  0.69678140    -0.04800
C2119       C  0.72834409  0.93521835  0.65561919    -0.01900
C2120       C  0.73033121  0.90508781  0.62797126     0.03100
C2121       C  0.78192319  0.84558201  0.70221863     0.37800
C2122       C  0.70829956  0.96490174  0.64104125     0.37700
C2123       C  0.71501712  0.90709627  0.58353152     0.36200
C2124       C  0.78596525  0.90928648  0.75007634     0.36200
N2125       N  0.70343809  0.91009304  0.54787668    -0.38700
N2126       N  0.80443950  0.90904550  0.78019345    -0.38700
N2127       N  0.69240190  0.98848849  0.62912588    -0.38100
N2128       N  0.79578219  0.82142149  0.71652761    -0.38100
C2129       C  0.88189140  0.64821180  0.50894403    -0.04800
C2130       C  0.90520618  0.64251291  0.47337101    -0.01900
C2131       C  0.93185453  0.61856573  0.47897058     0.03100
C2132       C  0.93526606  0.60050708  0.52027157    -0.04800
C2133       C  0.91341143  0.60798711  0.55682847    -0.01900
C2134       C  0.88667451  0.63172544  0.55116423     0.04500
C2135       C  0.90120667  0.66037099  0.43055201     0.37800
C2136       C  0.91842877  0.59096277  0.60016942     0.37700
C2137       C  0.86439154  0.63946059  0.58900637     0.36200
C2138       C  0.95521246  0.61176666  0.44197637     0.36200
N2139       N  0.84685125  0.64548940  0.61947745    -0.38700
N2140       N  0.97384748  0.60645837  0.41243015    -0.38700
N2141       N  0.92264770  0.57745149  0.63471848    -0.38100
N2142       N  0.89832567  0.67447379  0.39619950    -0.38100
C2143       C  0.60776453  0.57809197  0.53241920    -0.04800
C2144       C  0.61717307  0.58591954  0.48737554    -0.01900
C2145       C  0.64396232  0.60903191  0.47887601     0.03100
C2146       C  0.66032007  0.62514294  0.51542177    -0.04800
C2147       C  0.65170409  0.61634044  0.56045638    -0.01900
C2148       C  0.62561199  0.59241737  0.56892072     0.03100
C2149       C  0.59877022  0.57064827  0.45001150     0.37800
C2150       C  0.66832174  0.63331698  0.59807347     0.37700
C2151       C  0.61630173  0.58327111  0.61501723     0.36200
C2152       C  0.65449524  0.61655030  0.43274816     0.36200
N2153       N  0.60872528  0.57584193  0.65167509    -0.38700
N2154       N  0.66305485  0.62237545  0.39597901    -0.38700
N2155       N  0.68100961  0.64704610  0.62835716    -0.38100
N2156       N  0.58386808  0.55842872  0.42045117    -0.38100
C2157       C  0.63641400  0.85078629  0.52254114    -0.04800
C2158       C  0.61348065  0.86129537  0.48902206    -0.01900
C2159       C  0.58848768  0.88613808  0.49943183     0.03100
C2160       C  0.58490251  0.89871425  0.54415789    -0.04800
C2161       C  0.60590190  0.88570278  0.57863369    -0.01900
C2162       C  0.63165412  0.86166527  0.56781550     0.03100
C2163       C  0.61575629  0.84673028  0.44381370     0.37800
C2164       C  0.60172360  0.89802784  0.62471963     0.37700
C2165       C  0.65278931  0.84755492  0.60332654     0.36200
C2166       C  0.56829729  0.90092049  0.46339432     0.36200
N2167       N  0.66941425  0.83611027  0.63177290    -0.38700
N2168       N  0.55266447  0.91321899  0.43452699    -0.38700
N2169       N  0.59837948  0.90783416  0.66150254    -0.38100
N2170       N  0.61734432  0.83485734  0.40787859    -0.38100
C2171       C  0.86272968  0.87330727  0.50424489    -0.04800
C2172       C  0.85708764  0.90268466  0.53243025    -0.01900
C2173       C  0.88371678  0.92601056  0.54166896     0.03100
C2174       C  0.91533884  0.92195842  0.51990756    -0.04800
C2175       C  0.92008685  0.89466940  0.48880288    -0.01900
C2176       C  0.89532204  0.86881266  0.48429558     0.03100
C2177       C  0.82517380  0.90741150  0.55587620     0.37800
C2178       C  0.95092863  0.89276200  0.46193512     0.37700
C2179       C  0.90576795  0.83599694  0.46432965     0.36200
C2180       C  0.87875462  0.95383550  0.57434165     0.36200
N2181       N  0.91538919  0.80950527  0.45068224    -0.38700
N2182       N  0.87468012  0.97609279  0.60021514    -0.38700
N2183       N  0.97541178  0.89137187  0.44039607    -0.38100
N2184       N  0.80006533  0.91193649  0.57519416    -0.38100
C2185       C  0.63597336  0.74339433  0.35707524    -0.04800
C2186       C  0.63397634  0.76049083  0.31484638    -0.01900
C2187       C  0.60320362  0.76097548  0.28975994     0.03100
C2188       C  0.57213187  0.74727702  0.30816643    -0.04800
C2189       C  0.57539020  0.72736019  0.34861917    -0.01900
C2190       C  0.60634192  0.72588857  0.37275437     0.03100
C2191       C  0.66351773  0.77849532  0.29717353     0.37800
C2192       C  0.54746651  0.70635019  0.36529063     0.37700
C2193       C  0.60726213  0.70528216  0.41400687     0.36200
C2194       C  0.60546959  0.77341835  0.24357727     0.36200
N2195       N  0.60731761  0.68904681  0.44701917    -0.38700
N2196       N  0.60888850  0.78374881  0.20703523    -0.38700
N2197       N  0.52554389  0.68960012  0.37959805    -0.38100
N2198       N  0.68693187  0.79301559  0.28297820    -0.38100
C2199       C  0.93927032  0.75161090  0.30722206    -0.04800
C2200       C  0.91398744  0.72606644  0.29895084    -0.01900
C2201       C  0.88148601  0.72854282  0.31975109     0.03100
C2202       C  0.87320775  0.75731451  0.34734818    -0.04800
C2203       C  0.89627524  0.78517865  0.34922377    -0.01900
C2204       C  0.92991378  0.78118509  0.33327262     0.03100
C2205       C  0.92131985  0.69623497  0.27067916     0.37800
C2206       C  0.88372452  0.81930372  0.36192085     0.37700
C2207       C  0.95444708  0.80810376  0.34311465     0.36200
C2208       C  0.85648535  0.70151447  0.31263183     0.36200
N2209       N  0.97405039  0.82938442  0.35183327    -0.38700
N2210       N  0.83645786  0.68007627  0.30664189    -0.38700
N2211       N  0.87319645  0.84668728  0.37049444    -0.38100
N2212       N  0.92575215  0.67203004  0.24812067    -0.38100
C2213       C  0.74709777  0.93658984  0.30370515    -0.04800
C2214       C  0.72490222  0.93158415  0.34057503    -0.01900
C2215       C  0.72436379  0.89970687  0.36454826     0.03100
C2216       C  0.74686654  0.87207712  0.35301970    -0.04800
C2217       C  0.77017445  0.87767871  0.31714026    -0.01900
C2218       C  0.77085841  0.91007318  0.29350627     0.03100
C2219       C  0.70370942  0.96035235  0.35548993     0.37800
C2220       C  0.79419078  0.85059346  0.30516480     0.37700
C2221       C  0.79765652  0.91668771  0.26114389     0.36200
C2222       C  0.70010927  0.89577136  0.40121177     0.36200
N2223       N  0.82035133  0.92117847  0.23698500    -0.38700
N2224       N  0.68075124  0.89358372  0.43056384    -0.38700
N2225       N  0.81327313  0.82904073  0.29506679    -0.38100
N2226       N  0.68744383  0.98359479  0.36783810    -0.38100
C2227       C  0.76289589  0.62550398  0.35419774    -0.04800
C2228       C  0.77016482  0.59106841  0.37056522    -0.01900
C2229       C  0.76351968  0.56095092  0.34407412     0.03100
C2230       C  0.75115521  0.56402590  0.29959450    -0.04800
C2231       C  0.74759902  0.59824770  0.28142008    -0.01900
C2232       C  0.75303758  0.62843400  0.30830501     0.03100
C2233       C  0.78562678  0.58571389  0.41440263     0.37800
C2234       C  0.73920781  0.60315610  0.23421767     0.37700
C2235       C  0.74866017  0.66251485  0.28775591     0.36200
C2236       C  0.76895704  0.52667298  0.36360022     0.36200
N2237       N  0.74538715  0.68962884  0.27109965    -0.38700
N2238       N  0.77379602  0.49967256  0.37985686    -0.38700
N2239       N  0.73253894  0.60859279  0.19684293    -0.38100
N2240       N  0.79814096  0.58092348  0.44912245    -0.38100
loop_ 
_geom_bond_atom_site_label_1 
_geom_bond_atom_site_label_2 
_geom_bond_distance 
_geom_bond_site_symmetry_2 
_ccdc_geom_bond_type 
O1          Zr37   2.518       .  S
O1           C12   1.309       .  A
O2          Zr36   2.511       .  S
O2           C13   1.307       .  A
O3           Zr9   2.447       .  S
O3           C14   1.292       .  A
O4           Zr9   2.405       .  S
O4           C15   1.283       .  A
O5          Zr39   2.429       .  S
O5           C15   1.288       .  A
O6          Zr38   2.414       .  S
O6           C14   1.285       .  A
O7           Zr9   2.410       .  S
O7           C13   1.285       .  A
O8           Zr9   2.412       .  S
O8           C12   1.286       .  A
Zr9          O10   2.337       .  S
Zr9          O11   2.331       .  S
Zr9          O19   2.353       .  S
Zr9          O17   2.329       .  S
O10         Zr36   2.353       .  S
O10         Zr39   2.328       .  S
O11         Zr37   2.376       .  S
O11         Zr38   2.339       .  S
C12         C547   1.535       .  S
C13         C421   1.531       .  S
C14         C449   1.474       .  S
C15         C466   1.461       .  S
H16          O17   0.966       .  S
O17         Zr36   2.371       .  S
O17         Zr38   2.339       .  S
H18          O19   0.966       .  S
O19         Zr37   2.356       .  S
O19         Zr39   2.327       .  S
O20         Zr36   2.530       .  S
O20          C43   1.311       .  A
O21         Zr37   2.514       .  S
O21          C44   1.308       .  A
O22         Zr38   2.447       .  S
O22          C45   1.295       .  A
O23         Zr39   2.381       .  S
O23          C46   1.280       .  A
O24         Zr39   2.406       .  S
O24          C47   1.285       .  A
O25         Zr38   2.455       .  S
O25          C48   1.296       .  A
O26         Zr40   2.459       .  S
O26          C49   1.294       .  A
O27         Zr40   2.456       .  S
O27          C50   1.294       .  A
O28         Zr38   2.399       .  S
O28          C49   1.283       .  A
O29         Zr39   2.408       .  S
O29          C50   1.283       .  A
O30         Zr36   2.501       .  S
O30          C45   1.305       .  A
O31         Zr37   2.488       .  S
O31          C48   1.302       .  A
O32         Zr37   2.530       .  S
O32          C47   1.310       .  A
O33         Zr36   2.535       .  S
O33          C46   1.312       .  A
O34         Zr40   2.410       .  S
O34          C43   1.286       .  A
O35         Zr40   2.411       .  S
O35          C44   1.288       .  A
Zr36         O42   2.369       .  S
Zr36         O54   2.344       .  S
Zr37         O41   2.361       .  S
Zr37         O52   2.377       .  S
Zr38         O42   2.340       .  S
Zr38         O52   2.340       .  S
Zr39         O41   2.331       .  S
Zr39         O54   2.336       .  S
Zr40         O41   2.348       .  S
Zr40         O42   2.335       .  S
Zr40         O54   2.338       .  S
Zr40         O52   2.341       .  S
C43         C435   1.527       .  S
C44         C536   1.510       .  S
C45         C396   1.516       .  S
C46         C410   1.520       .  S
C47         C505   1.530       .  S
C48         C522   1.506       .  S
C49         C491   1.496       .  S
C50         C477   1.472       .  S
H51          O52   0.965       .  S
H53          O54   0.966       .  S
N55          H87   1.040       .  S
N55          C59   1.349       .  A
N55         C620   1.350       .  A
N56          C64   1.350       .  A
N56        C1183   1.349   1_455  A
N57          H88   1.039       .  S
N57          C61   1.351       .  A
N57         C622   1.350       .  A
N58          C66   1.346       .  A
N58        C1185   1.349   1_455  A
C59          C67   1.388       .  A
C59          C75   1.410       .  A
C60         N615   1.350       .  A
C60          C76   1.406       .  A
C60          C68   1.386       .  A
C61          C69   1.388       .  A
C61          C78   1.411       .  A
C62         N617   1.350   1_545  A
C62          C77   1.408       .  A
C62          C70   1.387       .  A
C63        N1176   1.349       .  A
C63          C75   1.416       .  A
C63          C71   1.388       .  A
C64          C78   1.408       .  A
C64          C72   1.383       .  A
C65        N1178   1.349       .  A
C65          C73   1.384       .  A
C65          C76   1.404       .  A
C66          C74   1.387       .  A
C66          C77   1.406       .  A
C67         C628   1.373       .  A
C67          H79   1.082       .  S
C68         C627   1.373   1_545  A
C68          H80   1.082       .  S
C69         C630   1.370       .  A
C69          H81   1.083       .  S
C70         C629   1.370   1_545  A
C70          H82   1.082       .  S
C71        C1192   1.376       .  A
C71          H83   1.082       .  S
C72        C1191   1.376   1_455  A
C72          H84   1.082       .  S
C73        C1194   1.373       .  A
C73          H85   1.082       .  S
C74        C1193   1.373       .  A
C74          H86   1.082       .  S
C75         C494   1.493       .  S
C76         C452   1.485       .  S
C77         C463   1.477       .  S
C78         C480   1.488       .  S
O89        Zr685   2.522       .  S
O89         C100   1.310       .  A
O90        Zr124   2.521       .  S
O90         C101   1.309       .  A
O91       Zr1217   2.434   1_455  S
O91         C102   1.289       .  A
O92         Zr97   2.409       .  S
O92         C103   1.283       .  A
O93        Zr127   2.434       .  S
O93         C103   1.289       .  A
O94        Zr126   2.403       .  S
O94         C102   1.282       .  A
O95         Zr97   2.410   1_554  S
O95         C101   1.287       .  A
O96         Zr97   2.414       .  S
O96         C100   1.286       .  A
Zr97       O1211   2.432       .  S
Zr97         O98   2.344   1_556  S
Zr97        O107   2.340       .  S
Zr97       O1219   2.330       .  S
Zr97       O1225   2.336   1_556  S
O98        Zr124   2.367       .  S
O98        Zr127   2.333   1_554  S
O99        Zr126   2.337       .  S
O99       Zr1217   2.330   1_455  S
O99       Zr1805   2.367   1_455  S
C100        C379   1.532       .  S
C101        C256   1.512       .  S
C102        C281   1.464       .  S
C103        C298   1.464       .  S
H104        O105   0.966       .  S
O105       Zr126   2.332   1_554  S
O105      Zr1217   2.336   1_454  S
O105      Zr1244   2.369   1_455  S
H106        O107   0.965       .  S
O107       Zr127   2.332       .  S
O107       Zr685   2.360       .  S
O108       Zr684   2.519   1_545  S
O108        C131   1.309       .  A
O109       Zr125   2.513   1_545  S
O109        C132   1.307       .  A
O110       Zr126   2.403   1_554  S
O110        C133   1.285       .  A
O111       Zr127   2.409   1_554  S
O111        C134   1.286       .  A
O112       Zr687   2.411       .  S
O112        C135   1.287       .  A
O113       Zr686   2.395       .  S
O113        C136   1.283       .  A
O114      Zr1248   2.417   1_455  S
O114        C137   1.285       .  A
O115       Zr128   2.422       .  S
O115        C138   1.288       .  A
O116       Zr686   2.421   1_554  S
O116        C137   1.286   1_554  A
O117       Zr687   2.417   1_545  S
O117        C138   1.286       .  A
O118      Zr1244   2.533   1_455  S
O118        C133   1.312       .  A
O119      Zr1245   2.526   1_445  S
O119        C136   1.310       .  A
O120       Zr125   2.534       .  S
O120        C135   1.312       .  A
O121       Zr124   2.526       .  S
O121        C134   1.310       .  A
O122       Zr128   2.426   1_554  S
O122        C131   1.289       .  A
O123       Zr128   2.429       .  S
O123        C132   1.289       .  A
Zr124       O668   2.519       .  S
Zr124      O1238   2.534       .  S
Zr124      O1225   2.369       .  S
Zr124      O1810   2.356       .  S
Zr124       O702   2.371       .  S
Zr125       O649   2.521       .  S
Zr125      O1239   2.524   1_565  S
Zr125       O129   2.364   1_565  S
Zr125      O1779   2.367       .  S
Zr125       O667   2.360       .  S
Zr125      O1260   2.368   1_565  S
Zr126       O673   2.396       .  S
Zr126       O676   2.421   1_556  S
Zr126       O690   2.323   1_556  S
Zr126       O700   2.332       .  S
Zr127       O672   2.411       .  S
Zr127       O677   2.417       .  S
Zr127       O689   2.337       .  S
Zr127       O702   2.339   1_556  S
Zr128      O1234   2.416       .  S
Zr128       O129   2.332       .  S
Zr128       O142   2.337   1_556  S
Zr128      O1250   2.337   1_556  S
Zr128      O1260   2.336       .  S
O129       Zr687   2.337   1_545  S
O130      Zr1804   2.355   1_445  S
O130       Zr686   2.323   1_554  S
O130      Zr1248   2.337   1_454  S
C131        C270   1.541       .  S
C132        C365   1.537       .  S
C133        C225   1.527       .  S
C134        C242   1.519       .  S
C135        C337   1.524       .  S
C136        C354   1.523       .  S
C137        C323   1.465       .  S
C138        C309   1.466       .  S
H139        O140   0.966       .  S
O140      Zr1245   2.368   1_445  S
O140       Zr686   2.332       .  S
O140      Zr1248   2.336   1_455  S
H141        O142   0.966       .  S
O142       Zr684   2.371   1_545  S
O142       Zr687   2.339   1_544  S
N143        H175   1.037       .  S
N143        C148   1.353       .  A
N143        C147   1.349       .  A
N144        C151   1.346       .  A
N144        C152   1.347       .  A
N145        H176   1.039       .  S
N145        C150   1.348       .  A
N145        C149   1.351       .  A
N146        C153   1.347       .  A
N146        C154   1.347       .  A
C147        C155   1.389   1_556  A
C147        C163   1.413       .  A
C148        C164   1.409       .  A
C148        C156   1.385   1_556  A
C149        C157   1.388       .  A
C149        C166   1.409       .  A
C150        C165   1.407       .  A
C150        C158   1.387   1_556  A
C151        C163   1.406       .  A
C151        C159   1.386       .  A
C152        C166   1.408       .  A
C152        C160   1.387       .  A
C153        C161   1.387       .  A
C153        C164   1.409       .  A
C154        C162   1.386       .  A
C154        C165   1.405       .  A
C155        C156   1.372       .  A
C155        H167   1.082       .  S
C156        H168   1.082       .  S
C157        C158   1.367   1_556  A
C157        H169   1.082   1_556  S
C158        H170   1.083       .  S
C159        C160   1.372       .  A
C159        H171   1.082       .  S
C160        H172   1.082       .  S
C161        C162   1.373       .  A
C161        H173   1.082       .  S
C162        H174   1.082       .  S
C163        C284   1.479       .  S
C164        C326   1.485       .  S
C165        C312   1.480       .  S
C166        C295   1.484       .  S
C177        C178   1.537       .  S
C177        C181   1.538       .  S
C177       C1303   1.564       .  S
C177        C508   1.586       .  S
C178        H185   1.086       .  S
C178       C1299   1.368       .  D
C179        C180   1.560       .  S
C179       C1298   1.368       .  D
C179        C267   1.525       .  S
C180        C184   1.549       .  S
C180        C182   1.557       .  S
C180        H186   1.110       .  S
C181        H187   1.084       .  S
C181       C1302   1.366       .  D
C182       C1301   1.366       .  D
C182        C253   1.512       .  S
C183       C1297   1.564       .  S
C183        H188   1.084       .  S
C183        C184   1.380       .  D
C184        C519   1.523       .  S
C189        C190   1.539       .  S
C189        C195   1.559       .  S
C189        C753   1.533       .  S
C189        C228   1.582       .  S
C190        H197   1.083       .  S
C190        C191   1.365       .  D
C191        C192   1.552       .  S
C191        C533   1.507       .  S
C192        C196   1.544       .  S
C192        C754   1.564       .  S
C192        H198   1.108       .  S
C193        C749   1.533   1_545  S
C193        H199   1.086       .  S
C193        C194   1.367       .  D
C194        C752   1.564   1_545  S
C194        C550   1.524       .  S
C195        H200   1.083       .  S
C195        C196   1.381       .  D
C196        C239   1.523       .  S
C201        C202   1.538       .  S
C201        C205   1.521       .  S
C201       C1327   1.563       .  S
C201        C407   1.566       .  S
C202        H209   1.082       .  S
C202       C1323   1.365       .  D
C203        C204   1.566       .  S
C203       C1322   1.365       .  D
C203        C382   1.529       .  S
C204        C208   1.548       .  S
C204        C206   1.569       .  S
C204        H210   1.105       .  S
C205        H211   1.087       .  S
C205       C1326   1.354       .  D
C206       C1325   1.354       .  D
C206        C368   1.511       .  S
C207       C1321   1.563       .  S
C207        H212   1.084       .  S
C207        C208   1.384       .  D
C208        C393   1.529       .  S
C213        C219   1.555       .  S
C213        C217   1.540       .  S
C213        C774   1.526       .  S
C213        C351   1.567       .  S
C214        C773   1.526       .  S
C214        H221   1.087       .  S
C214        C215   1.364       .  D
C215        C776   1.568   1_545  S
C215        C424   1.522       .  S
C216        C220   1.548       .  S
C216        C218   1.561       .  S
C216        C775   1.568       .  S
C216        H222   1.108       .  S
C217        H223   1.085       .  S
C217        C218   1.364       .  D
C218        C438   1.514       .  S
C219        H224   1.082       .  S
C219        C220   1.377       .  D
C220        C340   1.522       .  S
C225        C230   1.427       .  A
C225        C786   1.412       .  A
C226        C227   1.428       .  A
C226        C785   1.412   1_565  A
C226        C231   1.451       .  S
C227        C788   1.437   1_565  A
C227        C234   1.448       .  S
C228        C229   1.425       .  A
C228        C787   1.438       .  A
C229        C230   1.422       .  A
C229        C232   1.452       .  S
C230        C233   1.453       .  S
C231        N238   1.157       .  T
C232        N237   1.158       .  T
C233        N235   1.157       .  T
C234        N236   1.157       .  T
C239        C240   1.416       .  A
C239        C804   1.423       .  A
C240        C241   1.416       .  A
C240        C245   1.455       .  S
C241        C242   1.426       .  A
C241        C248   1.451       .  S
C242        C803   1.416       .  A
C243        C244   1.427       .  A
C243        C802   1.416   1_545  A
C243        C246   1.450       .  S
C244        C799   1.423   1_545  A
C244        C247   1.448       .  S
C245        N252   1.158       .  T
C246        N251   1.157       .  T
C247        N249   1.157       .  T
C248        N250   1.156       .  T
C253        C258   1.416       .  A
C253       C1374   1.412       .  A
C254        C255   1.414       .  A
C254       C1373   1.411   1_455  A
C254        C259   1.453       .  S
C255       C1376   1.424   1_455  A
C255        C262   1.451       .  S
C256        C257   1.416       .  A
C256       C1375   1.424       .  A
C257        C258   1.425       .  A
C257        C260   1.450       .  S
C258        C261   1.445       .  S
C259        N266   1.158       .  T
C260        N265   1.157       .  T
C261        N263   1.156       .  T
C262        N264   1.156       .  T
C267        C268   1.422       .  A
C267        C272   1.409       .  A
C268        C269   1.426       .  A
C268        C273   1.451       .  S
C269        C270   1.424       .  A
C269        C276   1.450       .  S
C270        C271   1.437       .  A
C271        C272   1.423       .  A
C271        C274   1.453       .  S
C272        C275   1.451       .  S
C273        N280   1.157       .  T
C274        N279   1.158       .  T
C275        N277   1.157       .  T
C276        N278   1.158       .  T
C281        C282   1.410       .  A
C281        C286   1.410   1_556  A
C282        C283   1.404       .  A
C282        C287   1.452       .  S
C283        C284   1.408       .  A
C283        C290   1.451       .  S
C284        C285   1.410   1_556  A
C285        C286   1.405       .  A
C285        C288   1.451       .  S
C286        C289   1.451       .  S
C287        N294   1.157       .  T
C288        N293   1.157       .  T
C289        N291   1.157       .  T
C290        N292   1.157       .  T
C295        C296   1.410       .  A
C295        C300   1.413   1_556  A
C296        C297   1.405       .  A
C296        C301   1.450       .  S
C297        C298   1.410       .  A
C297        C304   1.452       .  S
C298        C299   1.405   1_556  A
C299        C300   1.404       .  A
C299        C302   1.448       .  S
C300        C303   1.452       .  S
C301        N308   1.157       .  T
C302        N307   1.156       .  T
C303        N305   1.157       .  T
C304        N306   1.157       .  T
C309        C310   1.411       .  A
C309        C314   1.410   1_556  A
C310        C311   1.402       .  A
C310        C315   1.451       .  S
C311        C312   1.411       .  A
C311        C318   1.453       .  S
C312        C313   1.410   1_556  A
C313        C314   1.405       .  A
C313        C316   1.452       .  S
C314        C317   1.449       .  S
C315        N322   1.157       .  T
C316        N321   1.157       .  T
C317        N319   1.156       .  T
C318        N320   1.157       .  T
C323        C324   1.409   1_556  A
C323        C328   1.408       .  A
C324        C325   1.408       .  A
C324        C329   1.452       .  S
C325        C326   1.412   1_554  A
C325        C332   1.450       .  S
C326        C327   1.410       .  A
C327        C328   1.404       .  A
C327        C330   1.451       .  S
C328        C331   1.451       .  S
C329        N336   1.158       .  T
C330        N335   1.157       .  T
C331        N333   1.157       .  T
C332        N334   1.157       .  T
C337        C338   1.415   1_565  A
C337        C902   1.427       .  A
C338        C339   1.425       .  A
C338        C343   1.444       .  S
C339        C900   1.420   1_545  A
C339        C346   1.449       .  S
C340        C341   1.418       .  A
C340        C899   1.420       .  A
C341        C342   1.419       .  A
C341        C344   1.456       .  S
C342        C897   1.427       .  A
C342        C345   1.449       .  S
C343        N350   1.155       .  T
C344        N349   1.158       .  T
C345        N347   1.156       .  T
C346        N348   1.157       .  T
C351        C352   1.429       .  A
C351        C916   1.422       .  A
C352        C353   1.421       .  A
C352        C357   1.450       .  S
C353        C914   1.412       .  A
C353        C360   1.444       .  S
C354        C355   1.430       .  A
C354        C913   1.412   1_545  A
C355        C356   1.418       .  A
C355        C358   1.454       .  S
C356        C911   1.422       .  A
C356        C359   1.453       .  S
C357        N364   1.157       .  T
C358        N363   1.157       .  T
C359        N361   1.158       .  T
C360        N362   1.155       .  T
C365        C370   1.426       .  A
C365       C1486   1.438       .  A
C366        C367   1.414   1_655  A
C366       C1485   1.438       .  A
C366        C371   1.451       .  S
C367       C1488   1.401   1_455  A
C367        C374   1.453       .  S
C368        C369   1.420       .  A
C368       C1487   1.401       .  A
C369        C370   1.428       .  A
C369        C372   1.452       .  S
C370        C373   1.449       .  S
C371        N378   1.157       .  T
C372        N377   1.157       .  T
C373        N375   1.158       .  T
C374        N376   1.157       .  T
C379        C384   1.415       .  A
C379       C1500   1.435       .  A
C380        C381   1.422       .  A
C380       C1499   1.435       .  A
C380        C385   1.453       .  S
C381       C1502   1.412       .  A
C381        C388   1.449       .  S
C382        C383   1.429       .  A
C382       C1501   1.412       .  A
C383        C384   1.422       .  A
C383        C386   1.450       .  S
C384        C387   1.448       .  S
C385        N392   1.157       .  T
C386        N391   1.157       .  T
C387        N389   1.157       .  T
C388        N390   1.157       .  T
C393        C394   1.419       .  A
C393        C398   1.426       .  A
C394        C395   1.417       .  A
C394        C399   1.448       .  S
C395        C396   1.414       .  A
C395        C402   1.447       .  S
C396        C397   1.414       .  A
C397        C398   1.428       .  A
C397        C400   1.450       .  S
C398        C401   1.447       .  S
C399        N406   1.156       .  T
C400        N405   1.157       .  T
C401        N403   1.157       .  T
C402        N404   1.155       .  T
C407        C408   1.434       .  A
C407        C412   1.417       .  A
C408        C409   1.422       .  A
C408        C413   1.451       .  S
C409        C410   1.411       .  A
C409        C416   1.450       .  S
C410        C411   1.431       .  A
C411        C412   1.417       .  A
C411        C414   1.451       .  S
C412        C415   1.454       .  S
C413        N420   1.158       .  T
C414        N419   1.156       .  T
C415        N417   1.158       .  T
C416        N418   1.157       .  T
C421        C422   1.436       .  A
C421        C426   1.418       .  A
C422        C423   1.421       .  A
C422        C427   1.450       .  S
C423        C424   1.407       .  A
C423        C430   1.451       .  S
C424        C425   1.425       .  A
C425        C426   1.421       .  A
C425        C428   1.450       .  S
C426        C429   1.452       .  S
C427        N434   1.157       .  T
C428        N433   1.156       .  T
C429        N431   1.158       .  T
C430        N432   1.157       .  T
C435        C436   1.417       .  A
C435        C440   1.434       .  A
C436        C437   1.426       .  A
C436        C441   1.450       .  S
C437        C438   1.417       .  A
C437        C444   1.444       .  S
C438        C439   1.409       .  A
C439        C440   1.418       .  A
C439        C442   1.454       .  S
C440        C443   1.452       .  S
C441        N448   1.157       .  T
C442        N447   1.157       .  T
C443        N445   1.157       .  T
C444        N446   1.156       .  T
C449        C450   1.411       .  A
C449        C454   1.412       .  A
C450        C451   1.409       .  A
C450        C455   1.448       .  S
C451        C452   1.410       .  A
C451        C458   1.451       .  S
C452        C453   1.409       .  A
C453        C454   1.406       .  A
C453        C456   1.451       .  S
C454        C457   1.450       .  S
C455        N462   1.156       .  T
C456        N461   1.157       .  T
C457        N459   1.157       .  T
C458        N460   1.157       .  T
C463        C464   1.412       .  A
C463        C468   1.406       .  A
C464        C465   1.404       .  A
C464        C469   1.451       .  S
C465        C466   1.407       .  A
C465        C472   1.451       .  S
C466        C467   1.412       .  A
C467        C468   1.403       .  A
C467        C470   1.451       .  S
C468        C471   1.451       .  S
C469        N476   1.157       .  T
C470        N475   1.157       .  T
C471        N473   1.157       .  T
C472        N474   1.157       .  T
C477        C478   1.406       .  A
C477        C482   1.413       .  A
C478        C479   1.406       .  A
C478        C483   1.451       .  S
C479        C480   1.414       .  A
C479        C486   1.450       .  S
C480        C481   1.410       .  A
C481        C482   1.409       .  A
C481        C484   1.451       .  S
C482        C485   1.450       .  S
C483        N490   1.157       .  T
C484        N489   1.157       .  T
C485        N487   1.157       .  T
C486        N488   1.157       .  T
C491        C492   1.419       .  A
C491        C496   1.425       .  A
C492        C493   1.412       .  A
C492        C497   1.448       .  S
C493        C494   1.412       .  A
C493        C500   1.453       .  S
C494        C495   1.406       .  A
C495        C496   1.402       .  A
C495        C498   1.454       .  S
C496        C499   1.450       .  S
C497        N504   1.156       .  T
C498        N503   1.157       .  T
C499        N501   1.157       .  T
C500        N502   1.157       .  T
C505        C506   1.411       .  A
C505        C510   1.426       .  A
C506        C507   1.430       .  A
C506        C511   1.452       .  S
C507        C508   1.441       .  A
C507        C514   1.447       .  S
C508        C509   1.424       .  A
C509        C510   1.423       .  A
C509        C512   1.452       .  S
C510        C513   1.453       .  S
C511        N518   1.158       .  T
C512        N517   1.158       .  T
C513        N515   1.157       .  T
C514        N516   1.157       .  T
C519        C520   1.424       .  A
C519        C524   1.420       .  A
C520        C521   1.425       .  A
C520        C525   1.446       .  S
C521        C522   1.410       .  A
C521        C528   1.450       .  S
C522        C523   1.408       .  A
C523        C524   1.418       .  A
C523        C526   1.449       .  S
C524        C527   1.449       .  S
C525        N532   1.156       .  T
C526        N531   1.158       .  T
C527        N529   1.157       .  T
C528        N530   1.157       .  T
C533        C534   1.408       .  A
C533        C538   1.416       .  A
C534        C535   1.412       .  A
C534        C539   1.453       .  S
C535        C536   1.424       .  A
C535        C542   1.451       .  S
C536        C537   1.417       .  A
C537        C538   1.425       .  A
C537        C540   1.450       .  S
C538        C541   1.446       .  S
C539        N546   1.157       .  T
C540        N545   1.157       .  T
C541        N543   1.157       .  T
C542        N544   1.156       .  T
C547        C548   1.436       .  A
C547        C552   1.418       .  A
C548        C549   1.422       .  A
C548        C553   1.451       .  S
C549        C550   1.410       .  A
C549        C556   1.452       .  S
C550        C551   1.425       .  A
C551        C552   1.423       .  A
C551        C554   1.448       .  S
C552        C555   1.451       .  S
C553        N560   1.157       .  T
C554        N559   1.156       .  T
C555        N557   1.158       .  T
C556        N558   1.157   1_545  T
O561       Zr597   2.520       .  S
O561        C572   1.309       .  A
O562       Zr596   2.512       .  S
O562        C573   1.307       .  A
O563       Zr569   2.445       .  S
O563        C574   1.291       .  A
O564       Zr569   2.406       .  S
O564        C575   1.283       .  A
O565       Zr599   2.429       .  S
O565        C575   1.288       .  A
O566       Zr598   2.415       .  S
O566        C574   1.285       .  A
O567       Zr569   2.411       .  S
O567        C573   1.285       .  A
O568       Zr569   2.412       .  S
O568        C572   1.286       .  A
Zr569       O570   2.336       .  S
Zr569       O571   2.332       .  S
Zr569       O579   2.353       .  S
Zr569       O577   2.330       .  S
O570       Zr596   2.353       .  S
O570       Zr599   2.327       .  S
O571       Zr597   2.376       .  S
O571       Zr598   2.339       .  S
C572       C1107   1.535       .  S
C573        C981   1.531       .  S
C574       C1009   1.474       .  S
C575       C1026   1.461       .  S
H576        O577   0.966       .  S
O577       Zr596   2.371       .  S
O577       Zr598   2.340       .  S
H578        O579   0.966       .  S
O579       Zr597   2.357       .  S
O579       Zr599   2.327       .  S
O580       Zr596   2.531       .  S
O580        C603   1.311       .  A
O581       Zr597   2.515       .  S
O581        C604   1.308       .  A
O582       Zr598   2.445       .  S
O582        C605   1.295       .  A
O583       Zr599   2.381       .  S
O583        C606   1.280       .  A
O584       Zr599   2.405       .  S
O584        C607   1.284       .  A
O585       Zr598   2.454       .  S
O585        C608   1.296       .  A
O586       Zr600   2.459       .  S
O586        C609   1.294       .  A
O587       Zr600   2.456       .  S
O587        C610   1.294       .  A
O588       Zr598   2.399       .  S
O588        C609   1.283       .  A
O589       Zr599   2.408       .  S
O589        C610   1.284       .  A
O590       Zr596   2.499       .  S
O590        C605   1.305       .  A
O591       Zr597   2.489       .  S
O591        C608   1.302       .  A
O592       Zr597   2.530       .  S
O592        C607   1.310       .  A
O593       Zr596   2.534       .  S
O593        C606   1.312       .  A
O594       Zr600   2.409       .  S
O594        C603   1.286       .  A
O595       Zr600   2.410       .  S
O595        C604   1.288       .  A
Zr596       O602   2.369       .  S
Zr596       O614   2.343       .  S
Zr597       O601   2.361       .  S
Zr597       O612   2.376       .  S
Zr598       O602   2.340       .  S
Zr598       O612   2.340       .  S
Zr599       O601   2.331       .  S
Zr599       O614   2.336       .  S
Zr600       O601   2.348       .  S
Zr600       O602   2.334       .  S
Zr600       O614   2.338       .  S
Zr600       O612   2.341       .  S
C603        C995   1.527       .  S
C604       C1096   1.510       .  S
C605        C956   1.515       .  S
C606        C970   1.519       .  S
C607       C1065   1.530       .  S
C608       C1082   1.506       .  S
C609       C1051   1.496       .  S
C610       C1037   1.472       .  S
H611        O612   0.965       .  S
H613        O614   0.966       .  S
N615        H647   1.040       .  S
N615        C619   1.349   1_545  A
N616       C1743   1.349   1_455  A
N616        C624   1.349       .  A
N617        H648   1.039       .  S
N617        C621   1.351       .  A
N618       C1745   1.349   1_455  A
N618        C626   1.346       .  A
C619        C627   1.388       .  A
C619        C635   1.410       .  A
C620        C636   1.406       .  A
C620        C628   1.386       .  A
C621        C629   1.388       .  A
C621        C638   1.411       .  A
C622        C637   1.408       .  A
C622        C630   1.387       .  A
C623       N1736   1.349       .  A
C623        C635   1.416       .  A
C623        C631   1.388       .  A
C624        C638   1.408       .  A
C624        C632   1.384       .  A
C625       N1738   1.349       .  A
C625        C633   1.384       .  A
C625        C636   1.404       .  A
C626        C634   1.387       .  A
C626        C637   1.406       .  A
C627        H639   1.082       .  S
C628        H640   1.082       .  S
C629        H641   1.083       .  S
C630        H642   1.082       .  S
C631       C1752   1.376       .  A
C631        H643   1.082       .  S
C632       C1751   1.376   1_455  A
C632        H644   1.082       .  S
C633       C1754   1.373       .  A
C633        H645   1.082       .  S
C634       C1753   1.373       .  A
C634        H646   1.082       .  S
C635       C1054   1.493       .  S
C636       C1012   1.485       .  S
C637       C1023   1.477       .  S
C638       C1040   1.488       .  S
O649        C660   1.309       .  A
O650       Zr684   2.521       .  S
O650        C661   1.309       .  A
O651      Zr1777   2.432   1_455  S
O651        C662   1.289       .  A
O652       Zr657   2.409       .  S
O652        C663   1.283       .  A
O653       Zr687   2.434       .  S
O653        C663   1.289       .  A
O654       Zr686   2.404   1_565  S
O654        C662   1.282       .  A
O655       Zr657   2.409   1_554  S
O655        C661   1.287       .  A
O656       Zr657   2.415       .  S
O656        C660   1.286       .  A
Zr657      O1771   2.434       .  S
Zr657       O658   2.344   1_556  S
Zr657      O1779   2.330       .  S
Zr657       O667   2.340       .  S
Zr657      O1785   2.336   1_556  S
O658       Zr684   2.367       .  S
O658       Zr687   2.333   1_554  S
O659      Zr1777   2.330   1_455  S
O659      Zr1245   2.367   1_455  S
O659       Zr686   2.337   1_565  S
C660        C939   1.532       .  S
C661        C816   1.512       .  S
C662        C841   1.464       .  S
C663        C858   1.465       .  S
H664        O665   0.966       .  S
O665      Zr1777   2.336   1_454  S
O665      Zr1804   2.369   1_455  S
O665       Zr686   2.332   1_564  S
H666        O667   0.965       .  S
O667       Zr687   2.332       .  S
O668        C691   1.309       .  A
O669       Zr685   2.513       .  S
O669        C692   1.307       .  A
O670       Zr686   2.403   1_554  S
O670        C693   1.284       .  A
O671       Zr687   2.409   1_554  S
O671        C694   1.287       .  A
O672        C695   1.287       .  A
O673        C696   1.283       .  A
O674      Zr1808   2.416   1_455  S
O674        C697   1.284       .  A
O675       Zr688   2.422       .  S
O675        C698   1.288       .  A
O676        C697   1.286   1_554  A
O677        C698   1.286       .  A
O678      Zr1804   2.534   1_445  S
O678        C693   1.312       .  A
O679      Zr1805   2.524   1_455  S
O679        C696   1.310       .  A
O680       Zr685   2.535       .  S
O680        C695   1.312       .  A
O681       Zr684   2.525       .  S
O681        C694   1.310       .  A
O682       Zr688   2.426   1_554  S
O682        C691   1.289       .  A
O683       Zr688   2.429       .  S
O683        C692   1.289       .  A
Zr684      O1798   2.533   1_565  S
Zr684      O1785   2.369       .  S
Zr684      O1250   2.356   1_565  S
Zr685      O1799   2.526       .  S
Zr685      O1219   2.367       .  S
Zr685       O689   2.364       .  S
Zr685      O1820   2.368       .  S
Zr688      O1794   2.417       .  S
Zr688       O689   2.332       .  S
Zr688      O1810   2.337   1_556  S
Zr688       O702   2.337   1_556  S
Zr688      O1820   2.336       .  S
O690      Zr1244   2.356   1_455  S
O690      Zr1808   2.337   1_454  S
C691        C830   1.541       .  S
C692        C925   1.537       .  S
C693        C785   1.527       .  S
C694        C802   1.518       .  S
C695        C897   1.524       .  S
C696        C914   1.523       .  S
C697        C883   1.464       .  S
C698        C869   1.466       .  S
H699        O700   0.966       .  S
O700      Zr1805   2.368   1_455  S
O700      Zr1808   2.336   1_455  S
H701        O702   0.966       .  S
N703        H735   1.037       .  S
N703        C708   1.353       .  A
N703        C707   1.349       .  A
N704        C711   1.346       .  A
N704        C712   1.348       .  A
N705        H736   1.039       .  S
N705        C710   1.348       .  A
N705        C709   1.352       .  A
N706        C713   1.347       .  A
N706        C714   1.347       .  A
C707        C715   1.389   1_556  A
C707        C723   1.413       .  A
C708        C724   1.409       .  A
C708        C716   1.385   1_556  A
C709        C717   1.388   1_556  A
C709        C726   1.409       .  A
C710        C725   1.407       .  A
C710        C718   1.387   1_556  A
C711        C723   1.407       .  A
C711        C719   1.386       .  A
C712        C726   1.408       .  A
C712        C720   1.387       .  A
C713        C721   1.387       .  A
C713        C724   1.409       .  A
C714        C722   1.386       .  A
C714        C725   1.405       .  A
C715        C716   1.372       .  A
C715        H727   1.082       .  S
C716        H728   1.082       .  S
C717        C718   1.367       .  A
C717        H729   1.082       .  S
C718        H730   1.083       .  S
C719        C720   1.372       .  A
C719        H731   1.082       .  S
C720        H732   1.082       .  S
C721        C722   1.373       .  A
C721        H733   1.082       .  S
C722        H734   1.082       .  S
C723        C844   1.479       .  S
C724        C886   1.485       .  S
C725        C872   1.480       .  S
C726        C855   1.484       .  S
C737        C738   1.537       .  S
C737       C1863   1.564       .  S
C737        C741   1.538       .  S
C737       C1068   1.586       .  S
C738        H745   1.086       .  S
C738       C1859   1.368       .  D
C739        C740   1.560       .  S
C739       C1858   1.368       .  D
C739        C827   1.524       .  S
C740        C744   1.548       .  S
C740        C742   1.557       .  S
C740        H746   1.110       .  S
C741        H747   1.084       .  S
C741       C1862   1.366       .  D
C742       C1861   1.366       .  D
C742        C813   1.512       .  S
C743       C1857   1.564       .  S
C743        H748   1.084       .  S
C743        C744   1.380       .  D
C744       C1079   1.522       .  S
C749        C750   1.540       .  S
C749        C755   1.559       .  S
C749        C788   1.582   1_565  S
C750        H757   1.084       .  S
C750        C751   1.366       .  D
C751        C752   1.552       .  S
C751       C1093   1.507       .  S
C752        C756   1.544       .  S
C752        H758   1.108       .  S
C753        H759   1.086       .  S
C753        C754   1.367       .  D
C754       C1110   1.525       .  S
C755        H760   1.083       .  S
C755        C756   1.381       .  D
C756        C799   1.523       .  S
C761        C762   1.538       .  S
C761       C1887   1.563       .  S
C761        C765   1.521       .  S
C761        C967   1.565       .  S
C762        H769   1.082       .  S
C762       C1883   1.365       .  D
C763        C764   1.565       .  S
C763       C1882   1.365       .  D
C763        C942   1.529       .  S
C764        C768   1.548       .  S
C764        C766   1.568       .  S
C764        H770   1.105       .  S
C765        H771   1.087       .  S
C765       C1886   1.354       .  D
C766       C1885   1.354       .  D
C766        C928   1.511       .  S
C767       C1881   1.563       .  S
C767        H772   1.084       .  S
C767        C768   1.384       .  D
C768        C953   1.529       .  S
C773        C779   1.555       .  S
C773        C777   1.540   1_545  S
C773        C911   1.568       .  S
C774        H781   1.087       .  S
C774        C775   1.364       .  D
C775        C984   1.522       .  S
C776        C780   1.547       .  S
C776        C778   1.562       .  S
C776        H782   1.108       .  S
C777        H783   1.085       .  S
C777        C778   1.365       .  D
C778        C998   1.515       .  S
C779        H784   1.082   1_545  S
C779        C780   1.377   1_545  D
C780        C900   1.522       .  S
C785        C790   1.427       .  A
C786        C787   1.428       .  A
C786        C791   1.451       .  S
C787        C794   1.448       .  S
C788        C789   1.425       .  A
C789        C790   1.422       .  A
C789        C792   1.452       .  S
C790        C793   1.453       .  S
C791        N798   1.157       .  T
C792        N797   1.158       .  T
C793        N795   1.157       .  T
C794        N796   1.157       .  T
C799        C800   1.416       .  A
C800        C801   1.416       .  A
C800        C805   1.455       .  S
C801        C802   1.426       .  A
C801        C808   1.451       .  S
C803        C804   1.427       .  A
C803        C806   1.450       .  S
C804        C807   1.448       .  S
C805        N812   1.158       .  T
C806        N811   1.157       .  T
C807        N809   1.157       .  T
C808        N810   1.156       .  T
C813       C1934   1.411       .  A
C813        C818   1.416       .  A
C814       C1933   1.412   1_455  A
C814        C815   1.415       .  A
C814        C819   1.453       .  S
C815       C1936   1.424   1_455  A
C815        C822   1.451       .  S
C816       C1935   1.424       .  A
C816        C817   1.416       .  A
C817        C818   1.426       .  A
C817        C820   1.450       .  S
C818        C821   1.445       .  S
C819        N826   1.158       .  T
C820        N825   1.158       .  T
C821        N823   1.156       .  T
C822        N824   1.156       .  T
C827        C828   1.422       .  A
C827        C832   1.409       .  A
C828        C829   1.426       .  A
C828        C833   1.451       .  S
C829        C830   1.424       .  A
C829        C836   1.450       .  S
C830        C831   1.437       .  A
C831        C832   1.423       .  A
C831        C834   1.453       .  S
C832        C835   1.451       .  S
C833        N840   1.157       .  T
C834        N839   1.158       .  T
C835        N837   1.157       .  T
C836        N838   1.158       .  T
C841        C842   1.410       .  A
C841        C846   1.410   1_556  A
C842        C843   1.404       .  A
C842        C847   1.452       .  S
C843        C844   1.409       .  A
C843        C850   1.451       .  S
C844        C845   1.410   1_556  A
C845        C846   1.405       .  A
C845        C848   1.451       .  S
C846        C849   1.452       .  S
C847        N854   1.157       .  T
C848        N853   1.157       .  T
C849        N851   1.157       .  T
C850        N852   1.157       .  T
C855        C856   1.410       .  A
C855        C860   1.413   1_556  A
C856        C857   1.405       .  A
C856        C861   1.450       .  S
C857        C858   1.410       .  A
C857        C864   1.452       .  S
C858        C859   1.405   1_556  A
C859        C860   1.404       .  A
C859        C862   1.448       .  S
C860        C863   1.452       .  S
C861        N868   1.157       .  T
C862        N867   1.156       .  T
C863        N865   1.157       .  T
C864        N866   1.157       .  T
C869        C870   1.410       .  A
C869        C874   1.410   1_556  A
C870        C871   1.402       .  A
C870        C875   1.451       .  S
C871        C872   1.411       .  A
C871        C878   1.453       .  S
C872        C873   1.410   1_556  A
C873        C874   1.405       .  A
C873        C876   1.452       .  S
C874        C877   1.449       .  S
C875        N882   1.157       .  T
C876        N881   1.157       .  T
C877        N879   1.156       .  T
C878        N880   1.157       .  T
C883        C884   1.409   1_556  A
C883        C888   1.408       .  A
C884        C885   1.407       .  A
C884        C889   1.452       .  S
C885        C886   1.412   1_554  A
C885        C892   1.450       .  S
C886        C887   1.410       .  A
C887        C888   1.404       .  A
C887        C890   1.451       .  S
C888        C891   1.451       .  S
C889        N896   1.158       .  T
C890        N895   1.157       .  T
C891        N893   1.157       .  T
C892        N894   1.157       .  T
C897        C898   1.415       .  A
C898        C899   1.425       .  A
C898        C903   1.444       .  S
C899        C906   1.449       .  S
C900        C901   1.418       .  A
C901        C902   1.419       .  A
C901        C904   1.455       .  S
C902        C905   1.449       .  S
C903        N910   1.155       .  T
C904        N909   1.158       .  T
C905        N907   1.156       .  T
C906        N908   1.157       .  T
C911        C912   1.429   1_545  A
C912        C913   1.422       .  A
C912        C917   1.450       .  S
C913        C920   1.444       .  S
C914        C915   1.429       .  A
C915        C916   1.418       .  A
C915        C918   1.454       .  S
C916        C919   1.453       .  S
C917        N924   1.157       .  T
C918        N923   1.157       .  T
C919        N921   1.158       .  T
C920        N922   1.155       .  T
C925       C2046   1.438       .  A
C925        C930   1.426       .  A
C926       C2045   1.438       .  A
C926        C927   1.414   1_655  A
C926        C931   1.451       .  S
C927       C2048   1.401   1_455  A
C927        C934   1.453       .  S
C928       C2047   1.401       .  A
C928        C929   1.420       .  A
C929        C930   1.428       .  A
C929        C932   1.452       .  S
C930        C933   1.449       .  S
C931        N938   1.157       .  T
C932        N937   1.157       .  T
C933        N935   1.158       .  T
C934        N936   1.157       .  T
C939       C2060   1.435       .  A
C939        C944   1.416       .  A
C940       C2059   1.435       .  A
C940        C941   1.422       .  A
C940        C945   1.453       .  S
C941       C2062   1.412       .  A
C941        C948   1.449       .  S
C942       C2061   1.412       .  A
C942        C943   1.429       .  A
C943        C944   1.422       .  A
C943        C946   1.450       .  S
C944        C947   1.448       .  S
C945        N952   1.157       .  T
C946        N951   1.157       .  T
C947        N949   1.157       .  T
C948        N950   1.157       .  T
C953        C954   1.419       .  A
C953        C958   1.426       .  A
C954        C955   1.417       .  A
C954        C959   1.449       .  S
C955        C956   1.414       .  A
C955        C962   1.447       .  S
C956        C957   1.414       .  A
C957        C958   1.427       .  A
C957        C960   1.450       .  S
C958        C961   1.447       .  S
C959        N966   1.156       .  T
C960        N965   1.157       .  T
C961        N963   1.157       .  T
C962        N964   1.155       .  T
C967        C968   1.434       .  A
C967        C972   1.417       .  A
C968        C969   1.422       .  A
C968        C973   1.450       .  S
C969        C970   1.411       .  A
C969        C976   1.450       .  S
C970        C971   1.431       .  A
C971        C972   1.417       .  A
C971        C974   1.451       .  S
C972        C975   1.454       .  S
C973        N980   1.158       .  T
C974        N979   1.156       .  T
C975        N977   1.158       .  T
C976        N978   1.157       .  T
C981        C982   1.436       .  A
C981        C986   1.418       .  A
C982        C983   1.421       .  A
C982        C987   1.450       .  S
C983        C984   1.407       .  A
C983        C990   1.451       .  S
C984        C985   1.424       .  A
C985        C986   1.421       .  A
C985        C988   1.449       .  S
C986        C989   1.451       .  S
C987        N994   1.156       .  T
C988        N993   1.156       .  T
C989        N991   1.158       .  T
C990        N992   1.157       .  T
C995        C996   1.417       .  A
C995       C1000   1.434       .  A
C996        C997   1.426       .  A
C996       C1001   1.450       .  S
C997        C998   1.418       .  A
C997       C1004   1.444       .  S
C998        C999   1.409       .  A
C999       C1000   1.418       .  A
C999       C1002   1.454       .  S
C1000      C1003   1.452       .  S
C1001      N1008   1.158       .  T
C1002      N1007   1.157       .  T
C1003      N1005   1.157       .  T
C1004      N1006   1.156       .  T
C1009      C1010   1.411       .  A
C1009      C1014   1.412       .  A
C1010      C1011   1.408       .  A
C1010      C1015   1.448       .  S
C1011      C1012   1.410       .  A
C1011      C1018   1.451       .  S
C1012      C1013   1.409       .  A
C1013      C1014   1.406       .  A
C1013      C1016   1.451       .  S
C1014      C1017   1.451       .  S
C1015      N1022   1.156       .  T
C1016      N1021   1.157       .  T
C1017      N1019   1.157       .  T
C1018      N1020   1.157       .  T
C1023      C1024   1.412       .  A
C1023      C1028   1.406       .  A
C1024      C1025   1.404       .  A
C1024      C1029   1.451       .  S
C1025      C1026   1.407       .  A
C1025      C1032   1.451       .  S
C1026      C1027   1.412       .  A
C1027      C1028   1.403       .  A
C1027      C1030   1.451       .  S
C1028      C1031   1.451       .  S
C1029      N1036   1.157       .  T
C1030      N1035   1.157       .  T
C1031      N1033   1.157       .  T
C1032      N1034   1.157       .  T
C1037      C1038   1.406       .  A
C1037      C1042   1.413       .  A
C1038      C1039   1.406       .  A
C1038      C1043   1.451       .  S
C1039      C1040   1.414       .  A
C1039      C1046   1.450       .  S
C1040      C1041   1.410       .  A
C1041      C1042   1.409       .  A
C1041      C1044   1.451       .  S
C1042      C1045   1.450       .  S
C1043      N1050   1.157       .  T
C1044      N1049   1.157       .  T
C1045      N1047   1.157       .  T
C1046      N1048   1.157       .  T
C1051      C1052   1.419       .  A
C1051      C1056   1.425       .  A
C1052      C1053   1.412       .  A
C1052      C1057   1.448       .  S
C1053      C1054   1.412       .  A
C1053      C1060   1.453       .  S
C1054      C1055   1.406       .  A
C1055      C1056   1.403       .  A
C1055      C1058   1.454       .  S
C1056      C1059   1.450       .  S
C1057      N1064   1.156       .  T
C1058      N1063   1.157       .  T
C1059      N1061   1.157       .  T
C1060      N1062   1.157       .  T
C1065      C1066   1.411       .  A
C1065      C1070   1.426       .  A
C1066      C1067   1.430       .  A
C1066      C1071   1.452       .  S
C1067      C1068   1.441       .  A
C1067      C1074   1.447       .  S
C1068      C1069   1.424       .  A
C1069      C1070   1.423       .  A
C1069      C1072   1.452       .  S
C1070      C1073   1.453       .  S
C1071      N1078   1.158       .  T
C1072      N1077   1.158       .  T
C1073      N1075   1.157       .  T
C1074      N1076   1.157       .  T
C1079      C1080   1.424       .  A
C1079      C1084   1.419       .  A
C1080      C1081   1.425       .  A
C1080      C1085   1.446       .  S
C1081      C1082   1.410       .  A
C1081      C1088   1.450       .  S
C1082      C1083   1.408       .  A
C1083      C1084   1.418       .  A
C1083      C1086   1.449       .  S
C1084      C1087   1.449       .  S
C1085      N1092   1.156       .  T
C1086      N1091   1.158       .  T
C1087      N1089   1.157       .  T
C1088      N1090   1.157       .  T
C1093      C1094   1.408       .  A
C1093      C1098   1.416       .  A
C1094      C1095   1.413       .  A
C1094      C1099   1.453       .  S
C1095      C1096   1.425       .  A
C1095      C1102   1.451       .  S
C1096      C1097   1.417       .  A
C1097      C1098   1.425       .  A
C1097      C1100   1.450       .  S
C1098      C1101   1.446       .  S
C1099      N1106   1.157       .  T
C1100      N1105   1.158       .  T
C1101      N1103   1.157       .  T
C1102      N1104   1.157       .  T
C1107      C1108   1.436       .  A
C1107      C1112   1.418       .  A
C1108      C1109   1.422       .  A
C1108      C1113   1.451       .  S
C1109      C1110   1.410       .  A
C1109      C1116   1.452       .  S
C1110      C1111   1.425       .  A
C1111      C1112   1.423       .  A
C1111      C1114   1.448       .  S
C1112      C1115   1.451       .  S
C1113      N1120   1.157       .  T
C1114      N1119   1.156       .  T
C1115      N1117   1.158       .  T
C1116      N1118   1.157       .  T
O1121     Zr1157   2.520       .  S
O1121      C1132   1.309       .  A
O1122     Zr1156   2.512       .  S
O1122      C1133   1.307       .  A
O1123     Zr1129   2.445       .  S
O1123      C1134   1.291       .  A
O1124     Zr1129   2.405       .  S
O1124      C1135   1.283       .  A
O1125     Zr1159   2.429       .  S
O1125      C1135   1.288       .  A
O1126     Zr1158   2.415       .  S
O1126      C1134   1.285       .  A
O1127     Zr1129   2.411       .  S
O1127      C1133   1.285       .  A
O1128     Zr1129   2.412       .  S
O1128      C1132   1.286       .  A
Zr1129     O1130   2.336       .  S
Zr1129     O1131   2.332       .  S
Zr1129     O1139   2.353       .  S
Zr1129     O1137   2.330       .  S
O1130     Zr1156   2.353       .  S
O1130     Zr1159   2.327       .  S
O1131     Zr1157   2.376       .  S
O1131     Zr1158   2.339       .  S
C1132      C1667   1.535       .  S
C1133      C1541   1.531       .  S
C1134      C1569   1.474       .  S
C1135      C1586   1.461       .  S
H1136      O1137   0.966       .  S
O1137     Zr1156   2.371       .  S
O1137     Zr1158   2.339       .  S
H1138      O1139   0.966       .  S
O1139     Zr1157   2.357       .  S
O1139     Zr1159   2.327       .  S
O1140     Zr1156   2.531       .  S
O1140      C1163   1.311       .  A
O1141     Zr1157   2.515       .  S
O1141      C1164   1.308       .  A
O1142     Zr1158   2.445       .  S
O1142      C1165   1.295       .  A
O1143     Zr1159   2.381       .  S
O1143      C1166   1.280       .  A
O1144     Zr1159   2.405       .  S
O1144      C1167   1.284       .  A
O1145     Zr1158   2.454       .  S
O1145      C1168   1.296       .  A
O1146     Zr1160   2.459       .  S
O1146      C1169   1.294       .  A
O1147     Zr1160   2.456       .  S
O1147      C1170   1.294       .  A
O1148     Zr1158   2.399       .  S
O1148      C1169   1.283       .  A
O1149     Zr1159   2.408       .  S
O1149      C1170   1.284       .  A
O1150     Zr1156   2.499       .  S
O1150      C1165   1.305       .  A
O1151     Zr1157   2.489       .  S
O1151      C1168   1.302       .  A
O1152     Zr1157   2.530       .  S
O1152      C1167   1.310       .  A
O1153     Zr1156   2.534       .  S
O1153      C1166   1.312       .  A
O1154     Zr1160   2.409       .  S
O1154      C1163   1.286       .  A
O1155     Zr1160   2.411       .  S
O1155      C1164   1.288       .  A
Zr1156     O1162   2.369       .  S
Zr1156     O1174   2.343       .  S
Zr1157     O1161   2.361       .  S
Zr1157     O1172   2.376       .  S
Zr1158     O1162   2.340       .  S
Zr1158     O1172   2.340       .  S
Zr1159     O1161   2.331       .  S
Zr1159     O1174   2.336       .  S
Zr1160     O1161   2.348       .  S
Zr1160     O1162   2.334       .  S
Zr1160     O1174   2.338       .  S
Zr1160     O1172   2.341       .  S
C1163      C1555   1.527       .  S
C1164      C1656   1.510       .  S
C1165      C1516   1.515       .  S
C1166      C1530   1.519       .  S
C1167      C1625   1.530       .  S
C1168      C1642   1.506       .  S
C1169      C1611   1.496       .  S
C1170      C1597   1.472       .  S
H1171      O1172   0.965       .  S
H1173      O1174   0.966       .  S
N1175      H1207   1.040       .  S
N1175      C1740   1.350       .  A
N1175      C1179   1.349       .  A
N1176      C1184   1.349       .  A
N1177      H1208   1.039       .  S
N1177      C1742   1.350       .  A
N1177      C1181   1.351       .  A
N1178      C1186   1.346       .  A
C1179      C1187   1.388       .  A
C1179      C1195   1.410       .  A
C1180      N1735   1.350       .  A
C1180      C1196   1.406       .  A
C1180      C1188   1.386       .  A
C1181      C1189   1.388       .  A
C1181      C1198   1.411       .  A
C1182      N1737   1.350   1_545  A
C1182      C1197   1.408       .  A
C1182      C1190   1.387       .  A
C1183      C1195   1.416       .  A
C1183      C1191   1.388       .  A
C1184      C1198   1.408       .  A
C1184      C1192   1.384       .  A
C1185      C1193   1.384   1_655  A
C1185      C1196   1.404       .  A
C1186      C1194   1.387       .  A
C1186      C1197   1.406       .  A
C1187      C1748   1.373       .  A
C1187      H1199   1.082       .  S
C1188      C1747   1.373   1_545  A
C1188      H1200   1.082       .  S
C1189      C1750   1.370       .  A
C1189      H1201   1.083       .  S
C1190      C1749   1.370   1_545  A
C1190      H1202   1.082       .  S
C1191      H1203   1.082       .  S
C1192      H1204   1.082       .  S
C1193      H1205   1.082   1_455  S
C1194      H1206   1.082       .  S
C1195      C1614   1.493       .  S
C1196      C1572   1.485       .  S
C1197      C1583   1.477       .  S
C1198      C1600   1.488       .  S
O1209     Zr1805   2.521       .  S
O1209      C1220   1.310       .  A
O1210     Zr1244   2.521       .  S
O1210      C1221   1.309       .  A
O1211      C1222   1.289       .  A
O1212     Zr1217   2.409       .  S
O1212      C1223   1.283       .  A
O1213     Zr1247   2.434       .  S
O1213      C1223   1.289       .  A
O1214     Zr1246   2.404       .  S
O1214      C1222   1.282       .  A
O1215     Zr1217   2.409   1_554  S
O1215      C1221   1.287       .  A
O1216     Zr1217   2.415       .  S
O1216      C1220   1.286       .  A
Zr1217     O1218   2.344   1_556  S
Zr1217     O1227   2.340       .  S
O1218     Zr1244   2.367       .  S
O1218     Zr1247   2.333   1_554  S
O1219     Zr1246   2.336       .  S
C1220      C1499   1.532       .  S
C1221      C1376   1.512       .  S
C1222      C1401   1.464       .  S
C1223      C1418   1.465       .  S
H1224      O1225   0.966       .  S
O1225     Zr1246   2.332   1_554  S
H1226      O1227   0.965       .  S
O1227     Zr1805   2.360       .  S
O1227     Zr1247   2.332       .  S
O1228     Zr1804   2.519   1_545  S
O1228      C1251   1.309       .  A
O1229     Zr1245   2.513   1_545  S
O1229      C1252   1.307       .  A
O1230     Zr1246   2.403   1_554  S
O1230      C1253   1.284       .  A
O1231     Zr1247   2.409   1_554  S
O1231      C1254   1.287       .  A
O1232     Zr1807   2.411       .  S
O1232      C1255   1.287       .  A
O1233     Zr1806   2.396       .  S
O1233      C1256   1.283       .  A
O1234      C1257   1.284       .  A
O1235     Zr1248   2.422       .  S
O1235      C1258   1.288       .  A
O1236     Zr1806   2.421   1_554  S
O1236      C1257   1.286   1_554  A
O1237     Zr1807   2.417   1_545  S
O1237      C1258   1.286       .  A
O1238      C1253   1.312       .  A
O1239      C1256   1.310       .  A
O1240     Zr1245   2.534       .  S
O1240      C1255   1.312       .  A
O1241     Zr1244   2.525       .  S
O1241      C1254   1.310       .  A
O1242     Zr1248   2.426   1_554  S
O1242      C1251   1.289       .  A
O1243     Zr1248   2.429       .  S
O1243      C1252   1.289       .  A
Zr1244     O1788   2.519       .  S
Zr1244     O1822   2.371       .  S
Zr1245     O1769   2.522       .  S
Zr1245     O1787   2.360       .  S
Zr1245     O1249   2.364   1_565  S
Zr1246     O1793   2.395       .  S
Zr1246     O1796   2.420   1_556  S
Zr1246     O1810   2.323   1_556  S
Zr1246     O1820   2.332       .  S
Zr1247     O1792   2.411       .  S
Zr1247     O1797   2.417       .  S
Zr1247     O1809   2.337       .  S
Zr1247     O1822   2.339   1_556  S
Zr1248     O1249   2.332       .  S
Zr1248     O1262   2.337   1_556  S
O1249     Zr1807   2.337   1_545  S
O1250     Zr1806   2.323   1_554  S
C1251      C1390   1.541       .  S
C1252      C1485   1.537       .  S
C1253      C1345   1.527       .  S
C1254      C1362   1.519       .  S
C1255      C1457   1.524       .  S
C1256      C1474   1.523       .  S
C1257      C1443   1.464       .  S
C1258      C1429   1.466       .  S
H1259      O1260   0.966       .  S
O1260     Zr1806   2.332       .  S
H1261      O1262   0.966       .  S
O1262     Zr1804   2.371   1_545  S
O1262     Zr1807   2.339   1_544  S
N1263      H1295   1.037       .  S
N1263      C1268   1.353       .  A
N1263      C1267   1.349       .  A
N1264      C1271   1.347       .  A
N1264      C1272   1.348       .  A
N1265      H1296   1.039       .  S
N1265      C1270   1.348       .  A
N1265      C1269   1.352       .  A
N1266      C1273   1.347       .  A
N1266      C1274   1.347       .  A
C1267      C1275   1.389   1_556  A
C1267      C1283   1.413       .  A
C1268      C1284   1.409       .  A
C1268      C1276   1.385   1_556  A
C1269      C1277   1.388   1_556  A
C1269      C1286   1.409       .  A
C1270      C1285   1.407       .  A
C1270      C1278   1.387   1_556  A
C1271      C1283   1.407       .  A
C1271      C1279   1.386       .  A
C1272      C1286   1.408       .  A
C1272      C1280   1.387       .  A
C1273      C1281   1.387       .  A
C1273      C1284   1.409       .  A
C1274      C1282   1.386       .  A
C1274      C1285   1.405       .  A
C1275      C1276   1.372       .  A
C1275      H1287   1.082       .  S
C1276      H1288   1.082       .  S
C1277      C1278   1.367       .  A
C1277      H1289   1.082       .  S
C1278      H1290   1.083       .  S
C1279      C1280   1.372       .  A
C1279      H1291   1.082       .  S
C1280      H1292   1.082       .  S
C1281      C1282   1.373       .  A
C1281      H1293   1.082       .  S
C1282      H1294   1.082       .  S
C1283      C1404   1.480       .  S
C1284      C1446   1.485       .  S
C1285      C1432   1.480       .  S
C1286      C1415   1.485       .  S
C1297      C1298   1.537       .  S
C1297      C1301   1.538       .  S
C1297      C1628   1.586       .  S
C1298      H1305   1.086       .  S
C1299      C1300   1.560   1_455  S
C1299      C1387   1.525   1_455  S
C1300      C1304   1.548       .  S
C1300      C1302   1.557   1_655  S
C1300      H1306   1.110       .  S
C1301      H1307   1.084       .  S
C1302      C1373   1.512   1_455  S
C1303      H1308   1.084       .  S
C1303      C1304   1.380   1_455  D
C1304      C1639   1.522       .  S
C1309      C1310   1.540       .  S
C1309      C1315   1.559       .  S
C1309      C1873   1.533       .  S
C1309      C1348   1.582       .  S
C1310      H1317   1.084       .  S
C1310      C1311   1.366       .  D
C1311      C1312   1.552       .  S
C1311      C1653   1.507       .  S
C1312      C1316   1.545       .  S
C1312      C1874   1.564       .  S
C1312      H1318   1.108       .  S
C1313      C1869   1.533   1_545  S
C1313      H1319   1.086       .  S
C1313      C1314   1.367       .  D
C1314      C1872   1.564   1_545  S
C1314      C1670   1.525       .  S
C1315      H1320   1.083       .  S
C1315      C1316   1.381       .  D
C1316      C1359   1.523       .  S
C1321      C1322   1.538       .  S
C1321      C1325   1.521       .  S
C1321      C1527   1.565       .  S
C1322      H1329   1.082       .  S
C1323      C1324   1.565   1_455  S
C1323      C1502   1.529   1_455  S
C1324      C1328   1.548       .  S
C1324      C1326   1.568   1_655  S
C1324      H1330   1.105       .  S
C1325      H1331   1.087       .  S
C1326      C1488   1.510   1_455  S
C1327      H1332   1.084       .  S
C1327      C1328   1.384   1_455  D
C1328      C1513   1.529       .  S
C1333      C1894   1.526       .  S
C1333      C1339   1.555       .  S
C1333      C1337   1.540       .  S
C1333      C1471   1.568       .  S
C1334      C1893   1.526       .  S
C1334      H1341   1.087       .  S
C1334      C1335   1.364       .  D
C1335      C1896   1.568   1_545  S
C1335      C1544   1.522       .  S
C1336      C1895   1.568       .  S
C1336      C1340   1.547       .  S
C1336      C1338   1.562       .  S
C1336      H1342   1.108       .  S
C1337      H1343   1.085       .  S
C1337      C1338   1.365       .  D
C1338      C1558   1.515       .  S
C1339      H1344   1.082       .  S
C1339      C1340   1.377       .  D
C1340      C1460   1.522       .  S
C1345      C1906   1.412       .  A
C1345      C1350   1.427       .  A
C1346      C1905   1.412   1_565  A
C1346      C1347   1.428       .  A
C1346      C1351   1.451       .  S
C1347      C1908   1.438   1_565  A
C1347      C1354   1.448       .  S
C1348      C1907   1.437       .  A
C1348      C1349   1.425       .  A
C1349      C1350   1.422       .  A
C1349      C1352   1.452       .  S
C1350      C1353   1.453       .  S
C1351      N1358   1.157       .  T
C1352      N1357   1.158       .  T
C1353      N1355   1.157       .  T
C1354      N1356   1.157       .  T
C1359      C1360   1.416       .  A
C1359      C1924   1.423       .  A
C1360      C1361   1.416       .  A
C1360      C1365   1.455       .  S
C1361      C1362   1.426       .  A
C1361      C1368   1.451       .  S
C1362      C1923   1.416       .  A
C1363      C1922   1.416   1_545  A
C1363      C1364   1.427       .  A
C1363      C1366   1.450       .  S
C1364      C1919   1.423   1_545  A
C1364      C1367   1.448       .  S
C1365      N1372   1.158       .  T
C1366      N1371   1.157       .  T
C1367      N1369   1.157       .  T
C1368      N1370   1.156       .  T
C1373      C1378   1.416       .  A
C1374      C1375   1.415       .  A
C1374      C1379   1.453       .  S
C1375      C1382   1.451       .  S
C1376      C1377   1.416       .  A
C1377      C1378   1.426       .  A
C1377      C1380   1.450       .  S
C1378      C1381   1.445       .  S
C1379      N1386   1.158       .  T
C1380      N1385   1.158       .  T
C1381      N1383   1.156       .  T
C1382      N1384   1.156       .  T
C1387      C1388   1.422       .  A
C1387      C1392   1.409       .  A
C1388      C1389   1.426       .  A
C1388      C1393   1.451   1_655  S
C1389      C1390   1.424       .  A
C1389      C1396   1.450       .  S
C1390      C1391   1.437       .  A
C1391      C1392   1.423       .  A
C1391      C1394   1.453       .  S
C1392      C1395   1.451       .  S
C1393      N1400   1.157       .  T
C1394      N1399   1.158       .  T
C1395      N1397   1.157       .  T
C1396      N1398   1.158   1_655  T
C1401      C1402   1.410       .  A
C1401      C1406   1.410   1_556  A
C1402      C1403   1.404       .  A
C1402      C1407   1.452       .  S
C1403      C1404   1.409       .  A
C1403      C1410   1.451       .  S
C1404      C1405   1.410   1_556  A
C1405      C1406   1.405       .  A
C1405      C1408   1.451       .  S
C1406      C1409   1.452       .  S
C1407      N1414   1.157       .  T
C1408      N1413   1.157       .  T
C1409      N1411   1.157       .  T
C1410      N1412   1.157       .  T
C1415      C1416   1.410       .  A
C1415      C1420   1.413   1_556  A
C1416      C1417   1.405       .  A
C1416      C1421   1.450       .  S
C1417      C1418   1.410       .  A
C1417      C1424   1.452       .  S
C1418      C1419   1.405   1_556  A
C1419      C1420   1.404       .  A
C1419      C1422   1.448       .  S
C1420      C1423   1.452       .  S
C1421      N1428   1.157       .  T
C1422      N1427   1.156       .  T
C1423      N1425   1.157       .  T
C1424      N1426   1.157       .  T
C1429      C1430   1.410       .  A
C1429      C1434   1.410   1_556  A
C1430      C1431   1.402       .  A
C1430      C1435   1.451       .  S
C1431      C1432   1.411       .  A
C1431      C1438   1.453       .  S
C1432      C1433   1.410   1_556  A
C1433      C1434   1.405       .  A
C1433      C1436   1.452       .  S
C1434      C1437   1.449       .  S
C1435      N1442   1.157       .  T
C1436      N1441   1.157       .  T
C1437      N1439   1.156       .  T
C1438      N1440   1.157       .  T
C1443      C1444   1.409   1_556  A
C1443      C1448   1.408       .  A
C1444      C1445   1.407       .  A
C1444      C1449   1.452       .  S
C1445      C1446   1.412   1_554  A
C1445      C1452   1.450       .  S
C1446      C1447   1.410       .  A
C1447      C1448   1.404       .  A
C1447      C1450   1.451       .  S
C1448      C1451   1.451       .  S
C1449      N1456   1.158       .  T
C1450      N1455   1.157       .  T
C1451      N1453   1.157       .  T
C1452      N1454   1.157       .  T
C1457      C1458   1.415   1_565  A
C1457      C2022   1.427       .  A
C1458      C1459   1.425       .  A
C1458      C1463   1.444       .  S
C1459      C2020   1.420   1_545  A
C1459      C1466   1.449       .  S
C1460      C2019   1.420       .  A
C1460      C1461   1.418       .  A
C1461      C1462   1.419       .  A
C1461      C1464   1.455       .  S
C1462      C2017   1.427       .  A
C1462      C1465   1.450       .  S
C1463      N1470   1.155       .  T
C1464      N1469   1.158       .  T
C1465      N1467   1.156       .  T
C1466      N1468   1.157       .  T
C1471      C1472   1.429       .  A
C1471      C2036   1.422       .  A
C1472      C1473   1.422       .  A
C1472      C1477   1.450       .  S
C1473      C2034   1.412       .  A
C1473      C1480   1.444       .  S
C1474      C2033   1.412   1_545  A
C1474      C1475   1.429       .  A
C1475      C1476   1.418       .  A
C1475      C1478   1.454       .  S
C1476      C2031   1.422       .  A
C1476      C1479   1.453       .  S
C1477      N1484   1.157       .  T
C1478      N1483   1.157       .  T
C1479      N1481   1.158       .  T
C1480      N1482   1.155       .  T
C1485      C1490   1.426       .  A
C1486      C1487   1.414       .  A
C1486      C1491   1.451       .  S
C1487      C1494   1.453       .  S
C1488      C1489   1.420       .  A
C1489      C1490   1.428       .  A
C1489      C1492   1.452       .  S
C1490      C1493   1.449       .  S
C1491      N1498   1.157       .  T
C1492      N1497   1.157       .  T
C1493      N1495   1.158       .  T
C1494      N1496   1.157       .  T
C1499      C1504   1.416       .  A
C1500      C1501   1.422       .  A
C1500      C1505   1.453       .  S
C1501      C1508   1.449       .  S
C1502      C1503   1.429   1_655  A
C1503      C1504   1.422   1_455  A
C1503      C1506   1.450       .  S
C1504      C1507   1.448       .  S
C1505      N1512   1.157       .  T
C1506      N1511   1.157       .  T
C1507      N1509   1.157       .  T
C1508      N1510   1.157       .  T
C1513      C1514   1.419       .  A
C1513      C1518   1.426       .  A
C1514      C1515   1.417       .  A
C1514      C1519   1.449       .  S
C1515      C1516   1.414       .  A
C1515      C1522   1.447       .  S
C1516      C1517   1.414       .  A
C1517      C1518   1.427       .  A
C1517      C1520   1.450       .  S
C1518      C1521   1.447       .  S
C1519      N1526   1.156       .  T
C1520      N1525   1.157       .  T
C1521      N1523   1.157       .  T
C1522      N1524   1.155       .  T
C1527      C1528   1.434       .  A
C1527      C1532   1.417       .  A
C1528      C1529   1.422       .  A
C1528      C1533   1.450       .  S
C1529      C1530   1.411       .  A
C1529      C1536   1.450       .  S
C1530      C1531   1.430       .  A
C1531      C1532   1.417       .  A
C1531      C1534   1.451       .  S
C1532      C1535   1.454       .  S
C1533      N1540   1.158       .  T
C1534      N1539   1.156       .  T
C1535      N1537   1.158       .  T
C1536      N1538   1.157       .  T
C1541      C1542   1.436       .  A
C1541      C1546   1.418       .  A
C1542      C1543   1.421       .  A
C1542      C1547   1.450       .  S
C1543      C1544   1.407       .  A
C1543      C1550   1.451       .  S
C1544      C1545   1.424       .  A
C1545      C1546   1.421       .  A
C1545      C1548   1.449       .  S
C1546      C1549   1.451       .  S
C1547      N1554   1.156       .  T
C1548      N1553   1.156       .  T
C1549      N1551   1.158       .  T
C1550      N1552   1.157       .  T
C1555      C1556   1.417       .  A
C1555      C1560   1.434       .  A
C1556      C1557   1.426       .  A
C1556      C1561   1.450       .  S
C1557      C1558   1.418       .  A
C1557      C1564   1.444       .  S
C1558      C1559   1.409       .  A
C1559      C1560   1.418       .  A
C1559      C1562   1.454       .  S
C1560      C1563   1.452       .  S
C1561      N1568   1.158       .  T
C1562      N1567   1.157       .  T
C1563      N1565   1.157       .  T
C1564      N1566   1.156       .  T
C1569      C1570   1.411       .  A
C1569      C1574   1.412       .  A
C1570      C1571   1.408       .  A
C1570      C1575   1.448       .  S
C1571      C1572   1.410       .  A
C1571      C1578   1.451       .  S
C1572      C1573   1.409       .  A
C1573      C1574   1.406       .  A
C1573      C1576   1.451       .  S
C1574      C1577   1.451       .  S
C1575      N1582   1.156       .  T
C1576      N1581   1.157       .  T
C1577      N1579   1.157       .  T
C1578      N1580   1.157       .  T
C1583      C1584   1.412       .  A
C1583      C1588   1.406       .  A
C1584      C1585   1.404       .  A
C1584      C1589   1.451       .  S
C1585      C1586   1.407       .  A
C1585      C1592   1.451       .  S
C1586      C1587   1.412       .  A
C1587      C1588   1.403       .  A
C1587      C1590   1.451       .  S
C1588      C1591   1.451       .  S
C1589      N1596   1.157       .  T
C1590      N1595   1.157       .  T
C1591      N1593   1.157       .  T
C1592      N1594   1.157       .  T
C1597      C1598   1.406       .  A
C1597      C1602   1.413       .  A
C1598      C1599   1.406       .  A
C1598      C1603   1.451       .  S
C1599      C1600   1.414       .  A
C1599      C1606   1.450       .  S
C1600      C1601   1.410       .  A
C1601      C1602   1.410       .  A
C1601      C1604   1.451       .  S
C1602      C1605   1.450       .  S
C1603      N1610   1.157       .  T
C1604      N1609   1.157       .  T
C1605      N1607   1.157       .  T
C1606      N1608   1.157       .  T
C1611      C1612   1.419       .  A
C1611      C1616   1.425       .  A
C1612      C1613   1.412       .  A
C1612      C1617   1.448       .  S
C1613      C1614   1.412       .  A
C1613      C1620   1.453       .  S
C1614      C1615   1.406       .  A
C1615      C1616   1.402       .  A
C1615      C1618   1.454       .  S
C1616      C1619   1.450       .  S
C1617      N1624   1.156       .  T
C1618      N1623   1.157       .  T
C1619      N1621   1.157       .  T
C1620      N1622   1.157       .  T
C1625      C1626   1.411       .  A
C1625      C1630   1.426       .  A
C1626      C1627   1.430       .  A
C1626      C1631   1.452       .  S
C1627      C1628   1.441       .  A
C1627      C1634   1.447       .  S
C1628      C1629   1.424       .  A
C1629      C1630   1.423       .  A
C1629      C1632   1.452       .  S
C1630      C1633   1.453       .  S
C1631      N1638   1.158       .  T
C1632      N1637   1.158       .  T
C1633      N1635   1.157       .  T
C1634      N1636   1.157       .  T
C1639      C1640   1.424       .  A
C1639      C1644   1.419       .  A
C1640      C1641   1.425       .  A
C1640      C1645   1.446       .  S
C1641      C1642   1.410       .  A
C1641      C1648   1.450       .  S
C1642      C1643   1.408       .  A
C1643      C1644   1.418       .  A
C1643      C1646   1.449       .  S
C1644      C1647   1.449       .  S
C1645      N1652   1.156       .  T
C1646      N1651   1.158       .  T
C1647      N1649   1.157       .  T
C1648      N1650   1.157       .  T
C1653      C1654   1.408       .  A
C1653      C1658   1.416       .  A
C1654      C1655   1.413       .  A
C1654      C1659   1.453       .  S
C1655      C1656   1.424       .  A
C1655      C1662   1.451       .  S
C1656      C1657   1.417       .  A
C1657      C1658   1.425       .  A
C1657      C1660   1.450       .  S
C1658      C1661   1.446       .  S
C1659      N1666   1.157       .  T
C1660      N1665   1.157       .  T
C1661      N1663   1.157       .  T
C1662      N1664   1.157       .  T
C1667      C1668   1.436       .  A
C1667      C1672   1.418       .  A
C1668      C1669   1.422       .  A
C1668      C1673   1.451       .  S
C1669      C1670   1.410       .  A
C1669      C1676   1.452       .  S
C1670      C1671   1.425       .  A
C1671      C1672   1.423       .  A
C1671      C1674   1.448       .  S
C1672      C1675   1.451       .  S
C1673      N1680   1.157       .  T
C1674      N1679   1.156       .  T
C1675      N1677   1.158       .  T
C1676      N1678   1.157   1_545  T
O1681     Zr1717   2.519       .  S
O1681      C1692   1.309       .  A
O1682     Zr1716   2.511       .  S
O1682      C1693   1.307       .  A
O1683     Zr1689   2.447       .  S
O1683      C1694   1.292       .  A
O1684     Zr1689   2.406       .  S
O1684      C1695   1.283       .  A
O1685     Zr1719   2.429       .  S
O1685      C1695   1.288       .  A
O1686     Zr1718   2.414       .  S
O1686      C1694   1.285       .  A
O1687     Zr1689   2.410       .  S
O1687      C1693   1.285       .  A
O1688     Zr1689   2.411       .  S
O1688      C1692   1.286       .  A
Zr1689     O1690   2.337       .  S
Zr1689     O1691   2.331       .  S
Zr1689     O1699   2.353       .  S
Zr1689     O1697   2.329       .  S
O1690     Zr1716   2.353       .  S
O1690     Zr1719   2.328       .  S
O1691     Zr1717   2.376       .  S
O1691     Zr1718   2.339       .  S
C1692      C2227   1.535       .  S
C1693      C2101   1.531       .  S
C1694      C2129   1.475       .  S
C1695      C2146   1.461       .  S
H1696      O1697   0.966       .  S
O1697     Zr1716   2.371       .  S
O1697     Zr1718   2.339       .  S
H1698      O1699   0.966       .  S
O1699     Zr1717   2.356       .  S
O1699     Zr1719   2.327       .  S
O1700     Zr1716   2.530       .  S
O1700      C1723   1.311       .  A
O1701     Zr1717   2.514       .  S
O1701      C1724   1.308       .  A
O1702     Zr1718   2.446       .  S
O1702      C1725   1.295       .  A
O1703     Zr1719   2.381       .  S
O1703      C1726   1.280       .  A
O1704     Zr1719   2.406       .  S
O1704      C1727   1.284       .  A
O1705     Zr1718   2.455       .  S
O1705      C1728   1.296       .  A
O1706     Zr1720   2.459       .  S
O1706      C1729   1.294       .  A
O1707     Zr1720   2.456       .  S
O1707      C1730   1.294       .  A
O1708     Zr1718   2.399       .  S
O1708      C1729   1.283       .  A
O1709     Zr1719   2.408       .  S
O1709      C1730   1.284       .  A
O1710     Zr1716   2.501       .  S
O1710      C1725   1.305       .  A
O1711     Zr1717   2.488       .  S
O1711      C1728   1.302       .  A
O1712     Zr1717   2.530       .  S
O1712      C1727   1.310       .  A
O1713     Zr1716   2.535       .  S
O1713      C1726   1.312       .  A
O1714     Zr1720   2.410       .  S
O1714      C1723   1.286       .  A
O1715     Zr1720   2.411       .  S
O1715      C1724   1.288       .  A
Zr1716     O1722   2.369       .  S
Zr1716     O1734   2.344       .  S
Zr1717     O1721   2.361       .  S
Zr1717     O1732   2.377       .  S
Zr1718     O1722   2.340       .  S
Zr1718     O1732   2.340       .  S
Zr1719     O1721   2.331       .  S
Zr1719     O1734   2.336       .  S
Zr1720     O1721   2.348       .  S
Zr1720     O1722   2.335       .  S
Zr1720     O1734   2.338       .  S
Zr1720     O1732   2.341       .  S
C1723      C2115   1.527       .  S
C1724      C2216   1.510       .  S
C1725      C2076   1.515       .  S
C1726      C2090   1.520       .  S
C1727      C2185   1.530       .  S
C1728      C2202   1.506       .  S
C1729      C2171   1.496       .  S
C1730      C2157   1.472       .  S
H1731      O1732   0.965       .  S
H1733      O1734   0.966       .  S
N1735      H1767   1.040       .  S
N1735      C1739   1.349   1_545  A
N1736      C1744   1.350       .  A
N1737      H1768   1.039       .  S
N1737      C1741   1.351       .  A
N1738      C1746   1.345       .  A
C1739      C1747   1.388       .  A
C1739      C1755   1.410       .  A
C1740      C1756   1.406       .  A
C1740      C1748   1.386       .  A
C1741      C1749   1.388       .  A
C1741      C1758   1.411       .  A
C1742      C1757   1.408       .  A
C1742      C1750   1.387       .  A
C1743      C1755   1.416       .  A
C1743      C1751   1.388       .  A
C1744      C1758   1.408       .  A
C1744      C1752   1.383       .  A
C1745      C1753   1.384   1_655  A
C1745      C1756   1.404       .  A
C1746      C1754   1.387       .  A
C1746      C1757   1.406       .  A
C1747      H1759   1.082       .  S
C1748      H1760   1.082       .  S
C1749      H1761   1.083       .  S
C1750      H1762   1.082       .  S
C1751      H1763   1.082       .  S
C1752      H1764   1.082       .  S
C1753      H1765   1.082   1_455  S
C1754      H1766   1.082       .  S
C1755      C2174   1.493       .  S
C1756      C2132   1.485       .  S
C1757      C2143   1.477       .  S
C1758      C2160   1.488       .  S
O1769      C1780   1.310       .  A
O1770     Zr1804   2.521       .  S
O1770      C1781   1.309       .  A
O1771      C1782   1.289       .  A
O1772     Zr1777   2.409       .  S
O1772      C1783   1.283       .  A
O1773     Zr1807   2.434       .  S
O1773      C1783   1.289       .  A
O1774     Zr1806   2.403   1_565  S
O1774      C1782   1.282       .  A
O1775     Zr1777   2.410   1_554  S
O1775      C1781   1.287       .  A
O1776     Zr1777   2.415       .  S
O1776      C1780   1.286       .  A
Zr1777     O1778   2.344   1_556  S
Zr1777     O1787   2.340       .  S
O1778     Zr1804   2.367       .  S
O1778     Zr1807   2.333   1_554  S
O1779     Zr1806   2.337   1_565  S
C1780      C2059   1.532       .  S
C1781      C1936   1.512       .  S
C1782      C1961   1.464       .  S
C1783      C1978   1.464       .  S
H1784      O1785   0.966       .  S
O1785     Zr1806   2.332   1_564  S
H1786      O1787   0.965       .  S
O1787     Zr1807   2.332       .  S
O1788      C1811   1.309       .  A
O1789     Zr1805   2.513       .  S
O1789      C1812   1.307       .  A
O1790     Zr1806   2.403   1_554  S
O1790      C1813   1.285       .  A
O1791     Zr1807   2.409   1_554  S
O1791      C1814   1.286       .  A
O1792      C1815   1.287       .  A
O1793      C1816   1.283       .  A
O1794      C1817   1.285       .  A
O1795     Zr1808   2.422       .  S
O1795      C1818   1.288       .  A
O1796      C1817   1.286   1_554  A
O1797      C1818   1.286       .  A
O1798      C1813   1.312       .  A
O1799      C1816   1.310       .  A
O1800     Zr1805   2.534       .  S
O1800      C1815   1.312       .  A
O1801     Zr1804   2.526       .  S
O1801      C1814   1.310       .  A
O1802     Zr1808   2.426   1_554  S
O1802      C1811   1.289       .  A
O1803     Zr1808   2.429       .  S
O1803      C1812   1.289       .  A
Zr1805     O1809   2.364       .  S
Zr1808     O1809   2.332       .  S
Zr1808     O1822   2.337   1_556  S
C1811      C1950   1.541       .  S
C1812      C2045   1.537       .  S
C1813      C1905   1.527       .  S
C1814      C1922   1.519       .  S
C1815      C2017   1.524       .  S
C1816      C2034   1.523       .  S
C1817      C2003   1.464       .  S
C1818      C1989   1.466       .  S
H1819      O1820   0.966       .  S
H1821      O1822   0.966       .  S
N1823      H1855   1.037       .  S
N1823      C1828   1.353       .  A
N1823      C1827   1.349       .  A
N1824      C1831   1.346       .  A
N1824      C1832   1.347       .  A
N1825      H1856   1.039       .  S
N1825      C1830   1.348       .  A
N1825      C1829   1.351       .  A
N1826      C1833   1.347       .  A
N1826      C1834   1.347       .  A
C1827      C1835   1.389   1_556  A
C1827      C1843   1.413       .  A
C1828      C1844   1.409       .  A
C1828      C1836   1.385   1_556  A
C1829      C1837   1.388       .  A
C1829      C1846   1.409       .  A
C1830      C1845   1.407       .  A
C1830      C1838   1.387   1_556  A
C1831      C1843   1.406       .  A
C1831      C1839   1.386       .  A
C1832      C1846   1.408       .  A
C1832      C1840   1.387       .  A
C1833      C1841   1.387       .  A
C1833      C1844   1.409       .  A
C1834      C1842   1.386       .  A
C1834      C1845   1.406       .  A
C1835      C1836   1.372       .  A
C1835      H1847   1.082       .  S
C1836      H1848   1.082       .  S
C1837      C1838   1.367   1_556  A
C1837      H1849   1.082   1_556  S
C1838      H1850   1.083       .  S
C1839      C1840   1.372       .  A
C1839      H1851   1.082       .  S
C1840      H1852   1.082       .  S
C1841      C1842   1.373       .  A
C1841      H1853   1.082       .  S
C1842      H1854   1.082       .  S
C1843      C1964   1.479       .  S
C1844      C2006   1.485       .  S
C1845      C1992   1.480       .  S
C1846      C1975   1.484       .  S
C1857      C1858   1.537       .  S
C1857      C1861   1.538       .  S
C1857      C2188   1.586       .  S
C1858      H1865   1.086       .  S
C1859      C1860   1.560   1_455  S
C1859      C1947   1.525   1_455  S
C1860      C1864   1.549       .  S
C1860      C1862   1.557   1_655  S
C1860      H1866   1.110       .  S
C1861      H1867   1.084       .  S
C1862      C1933   1.512   1_455  S
C1863      H1868   1.084       .  S
C1863      C1864   1.380   1_455  D
C1864      C2199   1.523       .  S
C1869      C1870   1.539       .  S
C1869      C1875   1.559       .  S
C1869      C1908   1.582   1_565  S
C1870      H1877   1.083       .  S
C1870      C1871   1.365       .  D
C1871      C1872   1.552       .  S
C1871      C2213   1.507       .  S
C1872      C1876   1.544       .  S
C1872      H1878   1.108       .  S
C1873      H1879   1.086       .  S
C1873      C1874   1.367       .  D
C1874      C2230   1.524       .  S
C1875      H1880   1.083       .  S
C1875      C1876   1.381       .  D
C1876      C1919   1.523       .  S
C1881      C1882   1.538       .  S
C1881      C1885   1.521       .  S
C1881      C2087   1.566       .  S
C1882      H1889   1.082       .  S
C1883      C1884   1.566   1_455  S
C1883      C2062   1.529   1_455  S
C1884      C1888   1.548       .  S
C1884      C1886   1.569   1_655  S
C1884      H1890   1.105       .  S
C1885      H1891   1.087       .  S
C1886      C2048   1.511   1_455  S
C1887      H1892   1.084       .  S
C1887      C1888   1.384   1_455  D
C1888      C2073   1.529       .  S
C1893      C1899   1.555       .  S
C1893      C1897   1.540   1_545  S
C1893      C2031   1.568       .  S
C1894      H1901   1.087       .  S
C1894      C1895   1.364       .  D
C1895      C2104   1.522       .  S
C1896      C1900   1.548       .  S
C1896      C1898   1.561       .  S
C1896      H1902   1.108       .  S
C1897      H1903   1.085       .  S
C1897      C1898   1.364       .  D
C1898      C2118   1.514       .  S
C1899      H1904   1.082   1_545  S
C1899      C1900   1.377   1_545  D
C1900      C2020   1.522       .  S
C1905      C1910   1.427       .  A
C1906      C1907   1.428       .  A
C1906      C1911   1.451       .  S
C1907      C1914   1.448       .  S
C1908      C1909   1.425       .  A
C1909      C1910   1.422       .  A
C1909      C1912   1.452       .  S
C1910      C1913   1.453       .  S
C1911      N1918   1.157       .  T
C1912      N1917   1.158       .  T
C1913      N1915   1.157       .  T
C1914      N1916   1.157       .  T
C1919      C1920   1.416       .  A
C1920      C1921   1.416       .  A
C1920      C1925   1.455       .  S
C1921      C1922   1.426       .  A
C1921      C1928   1.451       .  S
C1923      C1924   1.427       .  A
C1923      C1926   1.450       .  S
C1924      C1927   1.448       .  S
C1925      N1932   1.158       .  T
C1926      N1931   1.157       .  T
C1927      N1929   1.157       .  T
C1928      N1930   1.156       .  T
C1933      C1938   1.416       .  A
C1934      C1935   1.414       .  A
C1934      C1939   1.453       .  S
C1935      C1942   1.451       .  S
C1936      C1937   1.416       .  A
C1937      C1938   1.426       .  A
C1937      C1940   1.450       .  S
C1938      C1941   1.445       .  S
C1939      N1946   1.158       .  T
C1940      N1945   1.157       .  T
C1941      N1943   1.156       .  T
C1942      N1944   1.156       .  T
C1947      C1948   1.422       .  A
C1947      C1952   1.409       .  A
C1948      C1949   1.426       .  A
C1948      C1953   1.451   1_655  S
C1949      C1950   1.424       .  A
C1949      C1956   1.450       .  S
C1950      C1951   1.437       .  A
C1951      C1952   1.423       .  A
C1951      C1954   1.453       .  S
C1952      C1955   1.451       .  S
C1953      N1960   1.157       .  T
C1954      N1959   1.158       .  T
C1955      N1957   1.157       .  T
C1956      N1958   1.158   1_655  T
C1961      C1962   1.410       .  A
C1961      C1966   1.410   1_556  A
C1962      C1963   1.404       .  A
C1962      C1967   1.452       .  S
C1963      C1964   1.408       .  A
C1963      C1970   1.451       .  S
C1964      C1965   1.410   1_556  A
C1965      C1966   1.405       .  A
C1965      C1968   1.451       .  S
C1966      C1969   1.451       .  S
C1967      N1974   1.157       .  T
C1968      N1973   1.157       .  T
C1969      N1971   1.157       .  T
C1970      N1972   1.157       .  T
C1975      C1976   1.410       .  A
C1975      C1980   1.413   1_556  A
C1976      C1977   1.405       .  A
C1976      C1981   1.450       .  S
C1977      C1978   1.410       .  A
C1977      C1984   1.452       .  S
C1978      C1979   1.405   1_556  A
C1979      C1980   1.404       .  A
C1979      C1982   1.448       .  S
C1980      C1983   1.452       .  S
C1981      N1988   1.157       .  T
C1982      N1987   1.156       .  T
C1983      N1985   1.157       .  T
C1984      N1986   1.157       .  T
C1989      C1990   1.411       .  A
C1989      C1994   1.410   1_556  A
C1990      C1991   1.402       .  A
C1990      C1995   1.451       .  S
C1991      C1992   1.411       .  A
C1991      C1998   1.453       .  S
C1992      C1993   1.410   1_556  A
C1993      C1994   1.405       .  A
C1993      C1996   1.452       .  S
C1994      C1997   1.449       .  S
C1995      N2002   1.157       .  T
C1996      N2001   1.157       .  T
C1997      N1999   1.156       .  T
C1998      N2000   1.157       .  T
C2003      C2004   1.409   1_556  A
C2003      C2008   1.408       .  A
C2004      C2005   1.408       .  A
C2004      C2009   1.452       .  S
C2005      C2006   1.412   1_554  A
C2005      C2012   1.450       .  S
C2006      C2007   1.410       .  A
C2007      C2008   1.404       .  A
C2007      C2010   1.451       .  S
C2008      C2011   1.451       .  S
C2009      N2016   1.158       .  T
C2010      N2015   1.157       .  T
C2011      N2013   1.157       .  T
C2012      N2014   1.157       .  T
C2017      C2018   1.415       .  A
C2018      C2019   1.425       .  A
C2018      C2023   1.444       .  S
C2019      C2026   1.449       .  S
C2020      C2021   1.418       .  A
C2021      C2022   1.419       .  A
C2021      C2024   1.456       .  S
C2022      C2025   1.449       .  S
C2023      N2030   1.155       .  T
C2024      N2029   1.158       .  T
C2025      N2027   1.156       .  T
C2026      N2028   1.157       .  T
C2031      C2032   1.429   1_545  A
C2032      C2033   1.421       .  A
C2032      C2037   1.450       .  S
C2033      C2040   1.444       .  S
C2034      C2035   1.430       .  A
C2035      C2036   1.418       .  A
C2035      C2038   1.454       .  S
C2036      C2039   1.453       .  S
C2037      N2044   1.157       .  T
C2038      N2043   1.157       .  T
C2039      N2041   1.158       .  T
C2040      N2042   1.155       .  T
C2045      C2050   1.426       .  A
C2046      C2047   1.414       .  A
C2046      C2051   1.451       .  S
C2047      C2054   1.453       .  S
C2048      C2049   1.420       .  A
C2049      C2050   1.428       .  A
C2049      C2052   1.452       .  S
C2050      C2053   1.449       .  S
C2051      N2058   1.157       .  T
C2052      N2057   1.157       .  T
C2053      N2055   1.158       .  T
C2054      N2056   1.157       .  T
C2059      C2064   1.415       .  A
C2060      C2061   1.422       .  A
C2060      C2065   1.453       .  S
C2061      C2068   1.449       .  S
C2062      C2063   1.429   1_655  A
C2063      C2064   1.422   1_455  A
C2063      C2066   1.450       .  S
C2064      C2067   1.448       .  S
C2065      N2072   1.157       .  T
C2066      N2071   1.157       .  T
C2067      N2069   1.157       .  T
C2068      N2070   1.157       .  T
C2073      C2074   1.419       .  A
C2073      C2078   1.426       .  A
C2074      C2075   1.417       .  A
C2074      C2079   1.448       .  S
C2075      C2076   1.414       .  A
C2075      C2082   1.447       .  S
C2076      C2077   1.414       .  A
C2077      C2078   1.428       .  A
C2077      C2080   1.450       .  S
C2078      C2081   1.447       .  S
C2079      N2086   1.156       .  T
C2080      N2085   1.157       .  T
C2081      N2083   1.157       .  T
C2082      N2084   1.155       .  T
C2087      C2088   1.434       .  A
C2087      C2092   1.417       .  A
C2088      C2089   1.422       .  A
C2088      C2093   1.451       .  S
C2089      C2090   1.411       .  A
C2089      C2096   1.450       .  S
C2090      C2091   1.431       .  A
C2091      C2092   1.417       .  A
C2091      C2094   1.451       .  S
C2092      C2095   1.454       .  S
C2093      N2100   1.158       .  T
C2094      N2099   1.156       .  T
C2095      N2097   1.158       .  T
C2096      N2098   1.157       .  T
C2101      C2102   1.436       .  A
C2101      C2106   1.418       .  A
C2102      C2103   1.421       .  A
C2102      C2107   1.450       .  S
C2103      C2104   1.407       .  A
C2103      C2110   1.451       .  S
C2104      C2105   1.425       .  A
C2105      C2106   1.421       .  A
C2105      C2108   1.450       .  S
C2106      C2109   1.452       .  S
C2107      N2114   1.157       .  T
C2108      N2113   1.156       .  T
C2109      N2111   1.158       .  T
C2110      N2112   1.157       .  T
C2115      C2116   1.417       .  A
C2115      C2120   1.434       .  A
C2116      C2117   1.426       .  A
C2116      C2121   1.450       .  S
C2117      C2118   1.417       .  A
C2117      C2124   1.444       .  S
C2118      C2119   1.409       .  A
C2119      C2120   1.418       .  A
C2119      C2122   1.454       .  S
C2120      C2123   1.452       .  S
C2121      N2128   1.157       .  T
C2122      N2127   1.157       .  T
C2123      N2125   1.157       .  T
C2124      N2126   1.156       .  T
C2129      C2130   1.411       .  A
C2129      C2134   1.412       .  A
C2130      C2131   1.409       .  A
C2130      C2135   1.447       .  S
C2131      C2132   1.410       .  A
C2131      C2138   1.451       .  S
C2132      C2133   1.409       .  A
C2133      C2134   1.406       .  A
C2133      C2136   1.451       .  S
C2134      C2137   1.450       .  S
C2135      N2142   1.156       .  T
C2136      N2141   1.157       .  T
C2137      N2139   1.157       .  T
C2138      N2140   1.157       .  T
C2143      C2144   1.412       .  A
C2143      C2148   1.406       .  A
C2144      C2145   1.404       .  A
C2144      C2149   1.451       .  S
C2145      C2146   1.407       .  A
C2145      C2152   1.451       .  S
C2146      C2147   1.412       .  A
C2147      C2148   1.403       .  A
C2147      C2150   1.451       .  S
C2148      C2151   1.451       .  S
C2149      N2156   1.157       .  T
C2150      N2155   1.157       .  T
C2151      N2153   1.157       .  T
C2152      N2154   1.157       .  T
C2157      C2158   1.406       .  A
C2157      C2162   1.413       .  A
C2158      C2159   1.406       .  A
C2158      C2163   1.451       .  S
C2159      C2160   1.414       .  A
C2159      C2166   1.450       .  S
C2160      C2161   1.410       .  A
C2161      C2162   1.409       .  A
C2161      C2164   1.451       .  S
C2162      C2165   1.450       .  S
C2163      N2170   1.157       .  T
C2164      N2169   1.157       .  T
C2165      N2167   1.157       .  T
C2166      N2168   1.157       .  T
C2171      C2172   1.419       .  A
C2171      C2176   1.425       .  A
C2172      C2173   1.412       .  A
C2172      C2177   1.448       .  S
C2173      C2174   1.412       .  A
C2173      C2180   1.453       .  S
C2174      C2175   1.406       .  A
C2175      C2176   1.402       .  A
C2175      C2178   1.454       .  S
C2176      C2179   1.450       .  S
C2177      N2184   1.156       .  T
C2178      N2183   1.157       .  T
C2179      N2181   1.157       .  T
C2180      N2182   1.157       .  T
C2185      C2186   1.411       .  A
C2185      C2190   1.426       .  A
C2186      C2187   1.430       .  A
C2186      C2191   1.452       .  S
C2187      C2188   1.441       .  A
C2187      C2194   1.447       .  S
C2188      C2189   1.424       .  A
C2189      C2190   1.423       .  A
C2189      C2192   1.452       .  S
C2190      C2193   1.453       .  S
C2191      N2198   1.158       .  T
C2192      N2197   1.158       .  T
C2193      N2195   1.157       .  T
C2194      N2196   1.157       .  T
C2199      C2200   1.424       .  A
C2199      C2204   1.419       .  A
C2200      C2201   1.425       .  A
C2200      C2205   1.446       .  S
C2201      C2202   1.410       .  A
C2201      C2208   1.450       .  S
C2202      C2203   1.408       .  A
C2203      C2204   1.418       .  A
C2203      C2206   1.449       .  S
C2204      C2207   1.449       .  S
C2205      N2212   1.156       .  T
C2206      N2211   1.158       .  T
C2207      N2209   1.157       .  T
C2208      N2210   1.157       .  T
C2213      C2214   1.408       .  A
C2213      C2218   1.416       .  A
C2214      C2215   1.412       .  A
C2214      C2219   1.453       .  S
C2215      C2216   1.424       .  A
C2215      C2222   1.451       .  S
C2216      C2217   1.417       .  A
C2217      C2218   1.425       .  A
C2217      C2220   1.450       .  S
C2218      C2221   1.446       .  S
C2219      N2226   1.157       .  T
C2220      N2225   1.157       .  T
C2221      N2223   1.157       .  T
C2222      N2224   1.156       .  T
C2227      C2228   1.436       .  A
C2227      C2232   1.418       .  A
C2228      C2229   1.422       .  A
C2228      C2233   1.451       .  S
C2229      C2230   1.410       .  A
C2229      C2236   1.452       .  S
C2230      C2231   1.425       .  A
C2231      C2232   1.423       .  A
C2231      C2234   1.448       .  S
C2232      C2235   1.451       .  S
C2233      N2240   1.157       .  T
C2234      N2239   1.156       .  T
C2235      N2237   1.158       .  T
C2236      N2238   1.157       .  T
