geometry optimzed in LAMMPS
_audit_creation_date              2020-11-30 
_audit_creation_method            'lammps2cif' 
_symmetry_space_group_name_H-M    'P1' 
_symmetry_Int_Tables_number       1 
_symmetry_cell_setting            triclinic 
loop_ 
_symmetry_equiv_pos_as_xyz 
  x,y,z 
_cell_length_a                    34.3647064 
_cell_length_b                    34.33701722592126 
_cell_length_c                    34.330360170607726 
_cell_angle_alpha                 90.41001500617257 
_cell_angle_beta                  90.28394823908883 
_cell_angle_gamma                 90.174733521924 
loop_ 
_atom_site_label 
_atom_site_type_symbol 
_atom_site_fract_x 
_atom_site_fract_y 
_atom_site_fract_z 
_atom_site_charge 
Zn1        Zn  0.04063983  0.96575262  0.02934881     1.49700
Zn2        Zn  0.97777971  0.03348078  0.03461789     1.49400
Zn3        Zn  0.04322951  0.03577238  0.96867394     1.49100
Zn4        Zn  0.97449472  0.97256958  0.96502181     1.49500
O5          O  0.00912087  0.00196284  0.99933360    -1.83300
O6          O  0.03527830  0.97600779  0.08687164    -0.73900
O7          O  0.98533495  0.09009418  0.02411463    -0.73800
O8          O  0.09986803  0.02584590  0.98139297    -0.73300
O9          O  0.99202689  0.02377993  0.09038146    -0.74000
O10         O  0.09708209  0.97257335  0.01744739    -0.73500
O11         O  0.03096714  0.09246490  0.97855738    -0.74100
O12         O  0.98453811  0.98602306  0.90952083    -0.73500
O13         O  0.92059840  0.02340190  0.02733316    -0.74300
O14         O  0.03510821  0.02630924  0.91095441    -0.73700
O15         O  0.91854926  0.98411318  0.97578174    -0.74100
O16         O  0.98124393  0.91466066  0.97158844    -0.74000
O17         O  0.02622194  0.90992097  0.01802757    -0.73800
C18         C  0.01530637  0.00013262  0.10670180     0.78000
C19         C  0.00676072  0.10928497  0.00100818     0.78400
C20         C  0.11665501  0.99855115  0.99994410     0.77400
C21         C  0.00977478  0.00657213  0.89203202     0.77800
C22         C  0.90149586  0.00410135  0.00186718     0.78900
C23         C  0.00237352  0.89425157  0.99410185     0.78000
N24         N  0.99908323  0.95817437  0.54064411    -0.35800
N25         N  0.99377439  0.04410625  0.53970485    -0.56300
N26         N  0.99583465  0.04173924  0.45629046    -0.35800
N27         N  0.99758826  0.95593055  0.45691963    -0.56300
C28         C  0.99064826  0.96620746  0.57827083     0.27800
C29         C  0.99211623  0.91967398  0.53456229     0.27800
C30         C  0.98759256  0.07996930  0.46179888     0.27800
C31         C  0.99017395  0.03358988  0.41815115     0.27800
C32         C  0.00112584  0.03838154  0.57788576     0.36400
C33         C  0.99859787  0.08268269  0.53330438     0.36400
C34         C  0.00510867  0.91785447  0.46353242     0.36400
C35         C  0.00510215  0.96223726  0.41889292     0.36400
C36         C  0.97842803  0.93238115  0.59646859    -0.21100
C37         C  0.97930698  0.90303874  0.56887053    -0.21100
C38         C  0.97667094  0.09627676  0.42659704    -0.21100
C39         C  0.97825857  0.06704300  0.39908666    -0.21100
C40         C  0.01015225  0.07358133  0.59594321    -0.22100
C41         C  0.00820061  0.10167154  0.56776554    -0.22100
C42         C  0.01683877  0.89973378  0.42940767    -0.22100
C43         C  0.01684985  0.92785050  0.40111162    -0.22100
C44         C  0.99675544  0.00247289  0.59738773    -0.17500
C45         C  0.99927350  0.89883762  0.49948916    -0.17500
C46         C  0.99940824  0.99798702  0.39940839    -0.17500
C47         C  0.99292008  0.10112719  0.49700878    -0.17500
H48         H  0.97024127  0.92908594  0.62667527     0.15400
H49         H  0.97186051  0.87280338  0.57365437     0.15400
H50         H  0.96930200  0.12633348  0.42097927     0.15400
H51         H  0.97234444  0.07040012  0.36830643     0.15400
H52         H  0.01682866  0.07863977  0.62640865     0.13700
H53         H  0.01323123  0.13251195  0.57221637     0.13700
H54         H  0.02435874  0.86939903  0.42529037     0.13700
H55         H  0.02429082  0.92337901  0.37081279     0.13700
H56         H  0.01334757  0.97692020  0.52184998     0.27000
H57         H  0.00970057  0.02354965  0.47589892     0.27000
N58         N  0.46857051  0.00022670  0.04906403    -0.35800
N59         N  0.46692092  0.99630249  0.96288002    -0.56300
N60         N  0.54993739  0.00371181  0.96210766    -0.35800
N61         N  0.55160952  0.00407022  0.04822496    -0.56300
C62         C  0.43144869  0.98906598  0.04214980     0.27800
C63         C  0.47613021  0.99372141  0.08727761     0.27800
C64         C  0.54325482  0.99521673  0.92400835     0.27800
C65         C  0.58819759  0.99796236  0.96900487     0.27800
C66         C  0.42872613  0.00122897  0.97037372     0.36400
C67         C  0.47165617  0.00297289  0.92435395     0.36400
C68         C  0.54646972  0.00981727  0.08690890     0.36400
C69         C  0.58950542  0.01121513  0.04100923     0.36400
C70         C  0.41508013  0.97557091  0.07641575    -0.21100
C71         C  0.44325268  0.97864895  0.10491715    -0.21100
C72         C  0.57777493  0.98447060  0.90636963    -0.21100
C73         C  0.60615409  0.98622793  0.93471566    -0.21100
C74         C  0.40905371  0.01077362  0.93635217    -0.22100
C75         C  0.43626715  0.01169527  0.90716176    -0.22100
C76         C  0.58131671  0.02041221  0.10444082    -0.22100
C77         C  0.60863505  0.02119415  0.07538918    -0.22100
C78         C  0.41084192  0.99419519  0.00674173    -0.17500
C79         C  0.51138940  0.00260033  0.10694953    -0.17500
C80         C  0.60788999  0.00542873  0.00465168    -0.17500
C81         C  0.50726999  0.99920876  0.90428567    -0.17500
H82         H  0.38560969  0.96526786  0.08061805     0.15400
H83         H  0.43982677  0.97091611  0.13522004     0.15400
H84         H  0.58215312  0.97658480  0.87612797     0.15400
H85         H  0.63668319  0.98003451  0.93033464     0.15400
H86         H  0.37819687  0.01599708  0.93281375     0.13700
H87         H  0.43064617  0.01788053  0.87678203     0.13700
H88         H  0.58666333  0.02614045  0.13505075     0.13700
H89         H  0.63926033  0.02762801  0.07931094     0.13700
H90         H  0.48581771  0.01578247  0.02986305     0.27000
H91         H  0.53071156  0.01698823  0.98122951     0.27000
N92         N  0.93676567  0.54350158  0.00373138    -0.35800
N93         N  0.02304543  0.54308948  0.00423433    -0.56300
N94         N  0.02169553  0.45944796  0.00118194    -0.35800
N95         N  0.93552619  0.45953346  0.00519279    -0.56300
C96         C  0.94420095  0.58190547  0.00887598     0.27800
C97         C  0.89817425  0.53769707  0.00988699     0.27800
C98         C  0.06017963  0.46542114  0.00806799     0.27800
C99         C  0.01421833  0.42148199  0.00808880     0.27800
C100        C  0.01689700  0.58158660  0.99939477     0.36400
C101        C  0.06167418  0.53715396  0.99919440     0.36400
C102        C  0.89675621  0.46546687  0.00107245     0.36400
C103        C  0.94172480  0.42118396  0.99870753     0.36400
C104        C  0.90980033  0.60090833  0.01799056    -0.21100
C105        C  0.88084228  0.57307463  0.01864412    -0.21100
C106        C  0.07736695  0.43071327  0.01901958    -0.21100
C107        C  0.04840904  0.40302404  0.01910478    -0.21100
C108        C  0.05199009  0.60024535  0.99198803    -0.22100
C109        C  0.08029498  0.57211520  0.99192331    -0.22100
C110        C  0.87816046  0.43049525  0.99279587    -0.22100
C111        C  0.90663453  0.40250794  0.99108824    -0.22100
C112        C  0.98058984  0.60077257  0.00329196    -0.17500
C113        C  0.87773848  0.50183210  0.00560183    -0.17500
C114        C  0.97815250  0.40220650  0.00197786    -0.17500
C115        C  0.08064653  0.50085834  0.00295272    -0.17500
H116        H  0.90583564  0.63176435  0.02319748     0.15400
H117        H  0.85038295  0.57842490  0.02442042     0.15400
H118        H  0.10769256  0.42573729  0.02597545     0.15400
H119        H  0.05223819  0.37257328  0.02606116     0.15400
H120        H  0.05682456  0.63103076  0.98738249     0.13700
H121        H  0.11106556  0.57689021  0.98726594     0.13700
H122        H  0.84731992  0.42563599  0.98834165     0.13700
H123        H  0.90196795  0.37181265  0.98531442     0.13700
H124        H  0.95623537  0.52349275  0.99249663     0.27000
H125        H  0.00258355  0.47864205  0.98797741     0.27000
N126        N  0.96241512  0.54366407  0.48798349    -0.35800
N127        N  0.95948288  0.45743464  0.48395191    -0.56300
N128        N  0.04310527  0.45557582  0.49001632    -0.35800
N129        N  0.04579584  0.54202131  0.48923667    -0.56300
C130        C  0.92467998  0.53756254  0.47848245     0.27800
C131        C  0.97004898  0.58199915  0.48241752     0.27800
C132        C  0.03608204  0.41697049  0.48473454     0.27800
C133        C  0.08170076  0.46150287  0.48527630     0.27800
C134        C  0.92113480  0.46516715  0.48753963     0.36400
C135        C  0.96364188  0.41855909  0.48899295     0.36400
C136        C  0.04115664  0.58074609  0.49549669     0.36400
C137        C  0.08394048  0.53434233  0.49475456     0.36400
C138        C  0.90804953  0.57241889  0.46690376    -0.21100
C139        C  0.93667366  0.60044335  0.46938945    -0.21100
C140        C  0.07091570  0.39802611  0.47759303    -0.21100
C141        C  0.09957991  0.42607024  0.47762655    -0.21100
C142        C  0.90074200  0.43089534  0.49404504    -0.22100
C143        C  0.92760237  0.40139495  0.49465921    -0.22100
C144        C  0.07659821  0.59782514  0.50468083    -0.22100
C145        C  0.10372623  0.56850781  0.50401452    -0.22100
C146        C  0.90380816  0.50233843  0.48343367    -0.17500
C147        C  0.00573385  0.60119231  0.49071135    -0.17500
C148        C  0.10180473  0.49747418  0.48973748    -0.17500
C149        C  0.99937269  0.39809603  0.48748043    -0.17500
H150        H  0.87815247  0.57727565  0.45818545     0.15400
H151        H  0.93318528  0.63100963  0.46275949     0.15400
H152        H  0.07536270  0.36717031  0.47287204     0.15400
H153        H  0.13026263  0.42078965  0.47306899     0.15400
H154        H  0.86966842  0.42739211  0.49771914     0.13700
H155        H  0.92127472  0.37083941  0.49897902     0.13700
H156        H  0.08240012  0.62828350  0.51069253     0.13700
H157        H  0.13456949  0.57199095  0.50962695     0.13700
H158        H  0.98008460  0.52392616  0.50234916     0.27000
H159        H  0.02355890  0.47619781  0.49991540     0.27000
Zn160      Zn  0.53551835  0.53567632  0.53375534     1.49700
Zn161      Zn  0.53604504  0.46733608  0.47037800     1.49400
Zn162      Zn  0.46854555  0.47121744  0.53436499     1.49100
Zn163      Zn  0.47151624  0.53410924  0.46610668     1.49500
O164        O  0.50289265  0.50199147  0.50112566    -1.83300
O165        O  0.59238030  0.52403999  0.52667454    -0.73900
O166        O  0.52570623  0.41159132  0.48406891    -0.73800
O167        O  0.47412536  0.48749485  0.59073542    -0.73300
O168        O  0.59290384  0.47807409  0.48069377    -0.74000
O169        O  0.52155944  0.53151899  0.59046078    -0.73500
O170        O  0.48007592  0.41370735  0.52972646    -0.74100
O171        O  0.41430620  0.52648849  0.47542015    -0.73500
O172        O  0.52567863  0.47281275  0.41263017    -0.74300
O173        O  0.41240965  0.47894348  0.51906366    -0.73700
O174        O  0.48063622  0.51906051  0.41044372    -0.74100
O175        O  0.48380249  0.59116092  0.47217024    -0.74000
O176        O  0.52811037  0.59146621  0.51953436    -0.73800
C177        C  0.61066869  0.50114095  0.50396733     0.78000
C178        C  0.50311469  0.39461426  0.50785703     0.78400
C179        C  0.49620416  0.51164087  0.60859536     0.77400
C180        C  0.39540194  0.50247845  0.49615080     0.77800
C181        C  0.50245346  0.49439842  0.39352278     0.78900
C182        C  0.50688750  0.60928305  0.49506339     0.78000
N183        N  0.43471228  0.50122572  0.95995528    -0.35800
N184        N  0.43673095  0.48881882  0.04325957    -0.56300
N185        N  0.52255745  0.49484954  0.04160956    -0.35800
N186        N  0.52070068  0.50278933  0.95803328    -0.56300
C187        C  0.39690719  0.49177906  0.96617548     0.27800
C188        C  0.44099916  0.49899645  0.92114113     0.27800
C189        C  0.51697479  0.48542257  0.07931724     0.27800
C190        C  0.56114703  0.49153423  0.03419585     0.27800
C191        C  0.39774438  0.49270450  0.03877097     0.36400
C192        C  0.44401400  0.49046774  0.08197709     0.36400
C193        C  0.51309019  0.51153114  0.92045247     0.36400
C194        C  0.55955500  0.50738309  0.96336514     0.36400
C195        C  0.37884578  0.48398802  0.93077308    -0.21100
C196        C  0.40663249  0.48845755  0.90240030    -0.21100
C197        C  0.55257653  0.47652546  0.09629591    -0.21100
C198        C  0.58034071  0.48023513  0.06785438    -0.21100
C199        C  0.38009311  0.49583306  0.07483032    -0.22100
C200        C  0.40936230  0.49444097  0.10218230    -0.22100
C201        C  0.54742956  0.52126992  0.90168958    -0.22100
C202        C  0.57680698  0.51853717  0.92882257    -0.22100
C203        C  0.37766558  0.49209346  0.00263433    -0.17500
C204        C  0.47628617  0.50795330  0.90182347    -0.17500
C205        C  0.57996677  0.50018908  0.99856211    -0.17500
C206        C  0.48121216  0.48719160  0.09971304    -0.17500
H207        H  0.34870483  0.47607366  0.92583086     0.15400
H208        H  0.40194005  0.48463533  0.87140863     0.15400
H209        H  0.55815189  0.46857619  0.12624887     0.15400
H210        H  0.61125800  0.47564437  0.07174413     0.15400
H211        H  0.34934649  0.49879574  0.08082319     0.13700
H212        H  0.40551973  0.49610221  0.13342375     0.13700
H213        H  0.55107295  0.52896279  0.87140037     0.13700
H214        H  0.60739065  0.52391042  0.92363783     0.13700
H215        H  0.45399782  0.51289372  0.98036407     0.27000
H216        H  0.50166445  0.50699195  0.02349907     0.27000
N217        N  0.51258665  0.04429859  0.46403620    -0.35800
N218        N  0.50297417  0.04188272  0.54971150    -0.56300
N219        N  0.51649646  0.95882296  0.54774158    -0.35800
N220        N  0.52178396  0.96106961  0.46179841    -0.56300
C221        C  0.50176184  0.08141201  0.47145387     0.27800
C222        C  0.50988109  0.03840253  0.42497116     0.27800
C223        C  0.50653324  0.96333745  0.58570399     0.27800
C224        C  0.51438059  0.92036779  0.53915599     0.27800
C225        C  0.50484256  0.08084418  0.54460852     0.36400
C226        C  0.50626048  0.03582210  0.58854835     0.36400
C227        C  0.52734537  0.96794710  0.42343482     0.36400
C228        C  0.52933395  0.92296946  0.46749390     0.36400
C229        C  0.49277165  0.09966559  0.43663956    -0.21100
C230        C  0.49776927  0.07254118  0.40737466    -0.21100
C231        C  0.49894139  0.92721463  0.60170317    -0.21100
C232        C  0.50374512  0.90013378  0.57237540    -0.21100
C233        C  0.50828246  0.09956717  0.58041726    -0.22100
C234        C  0.50909511  0.07108088  0.60820250    -0.22100
C235        C  0.53854604  0.93399402  0.40464211    -0.22100
C236        C  0.53980710  0.90553436  0.43248973    -0.22100
C237        C  0.50245280  0.10019921  0.50836957    -0.17500
C238        C  0.51932056  0.00358401  0.40454164    -0.17500
C239        C  0.52299929  0.90264893  0.50268431    -0.17500
C240        C  0.50576999  0.99897922  0.60677518    -0.17500
H241        H  0.48380130  0.12957324  0.43267983     0.15400
H242        H  0.49337275  0.07759169  0.37658559     0.15400
H243        H  0.49073469  0.92099861  0.63142141     0.15400
H244        H  0.50005761  0.86898241  0.57534708     0.15400
H245        H  0.51008953  0.13058423  0.58600490     0.13700
H246        H  0.51170018  0.07581721  0.63931179     0.13700
H247        H  0.54430362  0.92989248  0.37392207     0.13700
H248        H  0.54665289  0.87520322  0.42727939     0.13700
H249        H  0.52507447  0.02581000  0.48420102     0.27000
H250        H  0.52782161  0.98011378  0.52978268     0.27000
C251        C  0.50163987  0.28873124  0.47489495    -0.04600
C252        C  0.50568457  0.26917999  0.51061947     0.09500
C253        C  0.50853299  0.29066955  0.54568901    -0.02000
C254        C  0.50706050  0.33173184  0.54507553    -0.00300
C255        C  0.50329036  0.35143556  0.50920908    -0.03900
C256        C  0.50023793  0.32969300  0.47414873     0.03100
C257        C  0.50507119  0.22573745  0.51123118     0.10000
C258        C  0.51317466  0.27037145  0.58232036     0.35900
C259        C  0.49382123  0.34935532  0.43738191     0.39300
C260        C  0.53968781  0.20451969  0.50558389    -0.04300
C261        C  0.53863249  0.16352484  0.50464255     0.02900
C262        C  0.50293777  0.14363235  0.50901272    -0.03900
C263        C  0.46833730  0.16484133  0.51491713    -0.00100
C264        C  0.46943469  0.20586280  0.51605628    -0.02700
C265        C  0.57630973  0.22491126  0.50059168     0.36600
C266        C  0.43170479  0.14443563  0.51972265     0.40200
C267        C  0.57428680  0.14157087  0.49961002     0.39300
C268        C  0.43393622  0.22784279  0.52190334     0.36300
C269        C  0.49854483  0.26650012  0.43890246     0.37000
C270        C  0.51004652  0.35359475  0.58129262     0.40200
N271        N  0.60254935  0.12375122  0.49572496    -0.37900
N272        N  0.60558461  0.24108977  0.49653736    -0.39500
N273        N  0.40240593  0.12825476  0.52360468    -0.37200
N274        N  0.40579512  0.24566526  0.52657830    -0.39600
N275        N  0.51697746  0.25406455  0.61147202    -0.39400
N276        N  0.51224967  0.37099324  0.61022563    -0.37000
N277        N  0.48848900  0.36509121  0.40814344    -0.38000
N278        N  0.49614988  0.24865390  0.41026440    -0.39700
C279        C  0.50723672  0.71450489  0.52918769    -0.04600
C280        C  0.51505502  0.73420805  0.49421660     0.09500
C281        C  0.51910146  0.71310344  0.45909533    -0.02000
C282        C  0.51553456  0.67217808  0.45897710    -0.00300
C283        C  0.50867522  0.65230470  0.49422555    -0.03900
C284        C  0.50417907  0.67366230  0.52926922     0.03100
C285        C  0.51765872  0.77750099  0.49449470     0.10000
C286        C  0.52699617  0.73363635  0.42320167     0.35900
C287        C  0.49494653  0.65372744  0.56524172     0.40700
C288        C  0.55390806  0.79614799  0.50012879    -0.04300
C289        C  0.55584238  0.83708455  0.50283292     0.02900
C290        C  0.52145830  0.85931019  0.50019911    -0.03900
C291        C  0.48526545  0.84056017  0.49434867    -0.00100
C292        C  0.48341703  0.79974544  0.49123833    -0.02700
C293        C  0.58902579  0.77306524  0.50346899     0.36600
C294        C  0.44987431  0.86337597  0.49214923     0.40200
C295        C  0.59306703  0.85639325  0.50829764     0.39300
C296        C  0.44627825  0.78045900  0.48494558     0.36300
C297        C  0.50191612  0.73646366  0.56503298     0.37000
C298        C  0.51961375  0.65058807  0.42274968     0.40200
N299        N  0.62281110  0.87178201  0.51253282    -0.37900
N300        N  0.61694937  0.75449484  0.50612087    -0.39500
N301        N  0.42169119  0.88167639  0.49070130    -0.37200
N302        N  0.41672814  0.76494651  0.47985456    -0.39600
N303        N  0.53338630  0.75012389  0.39464240    -0.39400
N304        N  0.52266192  0.63340496  0.39380158    -0.37000
N305        N  0.48748897  0.63773213  0.59382586    -0.38000
N306        N  0.49753337  0.75409275  0.59352072    -0.39700
C307        C  0.53099021  0.49166793  0.28648234    -0.04600
C308        C  0.49423747  0.48767632  0.26836493     0.09500
C309        C  0.46043314  0.48493500  0.29125265    -0.02000
C310        C  0.46324937  0.48638676  0.33217734    -0.00300
C311        C  0.50002142  0.49062999  0.35050187    -0.03900
C312        C  0.53397307  0.49265933  0.32748708     0.03100
C313        C  0.49084919  0.48732492  0.22499981     0.10000
C314        C  0.42264755  0.48137420  0.27249142     0.35900
C315        C  0.57185609  0.49709089  0.34586293     0.39300
C316        C  0.48810313  0.45165245  0.20446202    -0.04300
C317        C  0.48415385  0.45148402  0.16356472     0.02900
C318        C  0.48329562  0.48698887  0.14313074    -0.03900
C319        C  0.48565080  0.52262945  0.16373923    -0.00100
C320        C  0.48927438  0.52279921  0.20460296    -0.02700
C321        C  0.48935457  0.41521675  0.22552427     0.36600
C322        C  0.48419216  0.55910428  0.14273750     0.40200
C323        C  0.48119217  0.41490219  0.14238573     0.39300
C324        C  0.49109426  0.55944209  0.22581706     0.36300
C325        C  0.56556595  0.49586021  0.26279165     0.37000
C326        C  0.42826732  0.48262547  0.35541425     0.40200
N327        N  0.47881071  0.38573598  0.12542849    -0.37900
N328        N  0.49030640  0.38619322  0.24242806    -0.39500
N329        N  0.48289834  0.58811356  0.12583711    -0.37200
N330        N  0.49250077  0.58862361  0.24284468    -0.39600
N331        N  0.39258385  0.47863382  0.25736759    -0.39400
N332        N  0.40040344  0.47960224  0.37396837    -0.37000
N333        N  0.60208470  0.50050179  0.36053292    -0.38000
N334        N  0.59305380  0.49956878  0.24381793    -0.39700
C335        C  0.48748139  0.48234238  0.79449618    -0.04600
C336        C  0.48039757  0.51861902  0.77673004     0.09500
C337        C  0.46973683  0.55099756  0.79986121    -0.02000
C338        C  0.46654868  0.54711171  0.84063916    -0.00300
C339        C  0.47534608  0.51123165  0.85845643    -0.03900
C340        C  0.48522991  0.47873842  0.83523230     0.03100
C341        C  0.48425030  0.52208109  0.73350700     0.10000
C342        C  0.46294258  0.58839784  0.78174820     0.35900
C343        C  0.49313810  0.44159213  0.85343808     0.39300
C344        C  0.45087802  0.52069118  0.70949299    -0.04300
C345        C  0.45473182  0.51849812  0.66864335     0.02900
C346        C  0.49214377  0.51677607  0.65152326    -0.03900
C347        C  0.52555706  0.51960018  0.67573324    -0.00100
C348        C  0.52151325  0.52292775  0.71648652    -0.02700
C349        C  0.41253613  0.52067038  0.72698763     0.36600
C350        C  0.56421739  0.51677476  0.65914409     0.40200
C351        C  0.42004828  0.51849576  0.64433298     0.39300
C352        C  0.55575316  0.52646597  0.74118422     0.36300
C353        C  0.49737144  0.44874464  0.77071425     0.37000
C354        C  0.45423656  0.57990454  0.86434075     0.40200
N355        N  0.39238838  0.51852499  0.62495431    -0.37900
N356        N  0.38199727  0.52074548  0.74104354    -0.39500
N357        N  0.59505451  0.51428710  0.64596563    -0.37200
N358        N  0.58298958  0.52942229  0.76095781    -0.39600
N359        N  0.45766626  0.61826757  0.76726844    -0.39400
N360        N  0.44403657  0.60593939  0.88325286    -0.37000
N361        N  0.49938775  0.41200728  0.86809698    -0.38000
N362        N  0.50532419  0.42207490  0.75159028    -0.39700
C363        C  0.28937944  0.53343746  0.49914523    -0.04600
C364        C  0.27053578  0.49875834  0.48722667     0.09500
C365        C  0.29265629  0.46565854  0.47739754    -0.02000
C366        C  0.33352883  0.46677644  0.48073041    -0.00300
C367        C  0.35246892  0.50138173  0.49295900    -0.03900
C368        C  0.33030864  0.53486693  0.50174851     0.03100
C369        C  0.22718609  0.49659788  0.48709554     0.10000
C370        C  0.27321168  0.43051861  0.46383458     0.35900
C371        C  0.34949514  0.57031583  0.51493023     0.39300
C372        C  0.20590988  0.50529273  0.45303650    -0.04300
C373        C  0.16491693  0.50534251  0.45383918     0.02900
C374        C  0.14517182  0.49650900  0.48866360    -0.03900
C375        C  0.16648675  0.48677956  0.52241673    -0.00100
C376        C  0.20743647  0.48664938  0.52156907    -0.02700
C377        C  0.22628099  0.51392666  0.41722026     0.36600
C378        C  0.14618125  0.47732122  0.55806307     0.40200
C379        C  0.14292062  0.51451666  0.41894308     0.39300
C380        C  0.22942416  0.47611813  0.55607153     0.36300
C381        C  0.26645461  0.56743368  0.50921220     0.37000
C382        C  0.35614480  0.43243622  0.47112366     0.40200
N383        N  0.12524238  0.52185716  0.39118546    -0.37900
N384        N  0.24257290  0.52057911  0.38859462    -0.39500
N385        N  0.12990980  0.46977859  0.58647236    -0.37200
N386        N  0.24713168  0.46755347  0.58344250    -0.39600
N387        N  0.25759326  0.40262082  0.45278890    -0.39400
N388        N  0.37426489  0.40505609  0.46363141    -0.37000
N389        N  0.36476874  0.59857503  0.52553762    -0.38000
N390        N  0.24799931  0.59442652  0.51726592    -0.39700
C391        C  0.79597198  0.49268490  0.45887661    -0.04600
C392        C  0.77896927  0.50455700  0.49436179     0.09500
C393        C  0.80279331  0.51750662  0.52545301    -0.02000
C394        C  0.84352736  0.51791219  0.52131978    -0.00300
C395        C  0.86059479  0.50483957  0.48627197    -0.03900
C396        C  0.83674131  0.49297426  0.45477609     0.03100
C397        C  0.73578717  0.50391191  0.49871760     0.10000
C398        C  0.78534193  0.52994312  0.56183319     0.35900
C399        C  0.85425128  0.48140525  0.41815328     0.39300
C400        C  0.71638343  0.46866642  0.50691304    -0.04300
C401        C  0.67542547  0.46772024  0.50911830     0.02900
C402        C  0.65377259  0.50221309  0.50373298    -0.03900
C403        C  0.67341266  0.53774419  0.49686621    -0.00100
C404        C  0.71428555  0.53846428  0.49395305    -0.02700
C405        C  0.73872461  0.43344877  0.51311542     0.36600
C406        C  0.65153537  0.57341426  0.49149572     0.40200
C407        C  0.65565111  0.43146389  0.51791871     0.39300
C408        C  0.73431357  0.57460125  0.48523482     0.36300
C409        C  0.77139073  0.48008913  0.42669226     0.37000
C410        C  0.86802412  0.53175590  0.55310131     0.40200
N411        N  0.63988865  0.40256026  0.52503758    -0.37900
N412        N  0.75669202  0.40545352  0.51809126    -0.39500
N413        N  0.63405994  0.60185898  0.48734600    -0.37200
N414        N  0.75041024  0.60334260  0.47822700    -0.39600
N415        N  0.77143382  0.53986611  0.59087127    -0.39400
N416        N  0.88773528  0.54309031  0.57818039    -0.37000
N417        N  0.86828264  0.47231156  0.38890887    -0.38000
N418        N  0.75165028  0.46997187  0.40113209    -0.39700
C419        C  0.77081395  0.50026284  0.03835437    -0.04600
C420        C  0.75077560  0.50288070  0.00238754     0.09500
C421        C  0.77251758  0.50582930  0.96768072    -0.02000
C422        C  0.81371652  0.50535731  0.96882811    -0.00300
C423        C  0.83378437  0.50255458  0.00473486    -0.03900
C424        C  0.81206566  0.50032940  0.03954526     0.03100
C425        C  0.70678945  0.50234629  0.00098366     0.10000
C426        C  0.75236829  0.50986572  0.93074786     0.35900
C427        C  0.83224895  0.49837744  0.07663941     0.39300
C428        C  0.68529765  0.53634797  0.00966362    -0.04300
C429        C  0.64408433  0.53563466  0.00884747     0.02900
C430        C  0.62385687  0.50122120  0.99829207    -0.03900
C431        C  0.64530995  0.46735868  0.98911031    -0.00100
C432        C  0.68649703  0.46776369  0.99099265    -0.02700
C433        C  0.70570580  0.57212345  0.01944844     0.36600
C434        C  0.62482078  0.43193427  0.97819124     0.40200
C435        C  0.62230391  0.57020624  0.01934599     0.39300
C436        C  0.70808964  0.43231898  0.98350711     0.36300
C437        C  0.74882329  0.49737623  0.07415432     0.37000
C438        C  0.83567012  0.50762390  0.93296918     0.40200
N439        N  0.60475691  0.59764681  0.02791558    -0.37900
N440        N  0.72206308  0.60066614  0.02722097    -0.39500
N441        N  0.60832779  0.40375660  0.96939859    -0.37200
N442        N  0.72538343  0.40400235  0.97777894    -0.39600
N443        N  0.73621642  0.51324313  0.90131390    -0.39400
N444        N  0.85338468  0.50930937  0.90444998    -0.37000
N445        N  0.84834243  0.49702748  0.10628762    -0.38000
N446        N  0.73109961  0.49514566  0.10263310    -0.39700
C447        C  0.18708025  0.50182091  0.03717025    -0.04600
C448        C  0.20718769  0.49568125  0.00186547     0.09500
C449        C  0.18571395  0.49143264  0.96686791    -0.02000
C450        C  0.14455635  0.49324319  0.96722111    -0.00300
C451        C  0.12447428  0.49976201  0.00250056    -0.03900
C452        C  0.14598176  0.50416058  0.03745149     0.03100
C453        C  0.25104794  0.49447174  0.00161144     0.10000
C454        C  0.20608546  0.48529836  0.93047272     0.35900
C455        C  0.12567548  0.51080312  0.07378286     0.39300
C456        C  0.27095305  0.45851250  0.00242796    -0.04300
C457        C  0.31216088  0.45760096  0.00295160     0.02900
C458        C  0.33384032  0.49265030  0.00276055    -0.03900
C459        C  0.31389801  0.52856782  0.00234027    -0.00100
C460        C  0.27276292  0.52947422  0.00154508    -0.02700
C461        C  0.24889905  0.42247203  0.00305248     0.36600
C462        C  0.33588662  0.56466705  0.00323588     0.40200
C463        C  0.33236614  0.42062702  0.00376690     0.39300
C464        C  0.25262391  0.56649533  0.00062836     0.36300
C465        C  0.20885911  0.50531361  0.07330462     0.37000
C466        C  0.12271839  0.48837524  0.93126854     0.40200
N467        N  0.34855196  0.39113183  0.00442991    -0.37900
N468        N  0.23118460  0.39376350  0.00356649    -0.39500
N469        N  0.35357921  0.59338970  0.00417284    -0.37200
N470        N  0.23643818  0.59598632  0.99989067    -0.39600
N471        N  0.22241260  0.48038639  0.90145531    -0.39400
N472        N  0.10518097  0.48445801  0.90263558    -0.37000
N473        N  0.10940540  0.51612478  0.10275802    -0.38000
N474        N  0.22644383  0.50795554  0.10204090    -0.39700
C475        C  0.49914539  0.96489771  0.79793919    -0.04600
C476        C  0.50672217  0.99968361  0.77749726     0.09500
C477        C  0.51500429  0.03414634  0.79877920    -0.02000
C478        C  0.51522594  0.03390747  0.84000820    -0.00300
C479        C  0.50704967  0.99927094  0.86042275    -0.03900
C480        C  0.49943569  0.96465940  0.83916938     0.03100
C481        C  0.50634029  0.99976802  0.73354449     0.10000
C482        C  0.52338569  0.06987248  0.77816736     0.35900
C483        C  0.49284503  0.92858255  0.85982389     0.39300
C484        C  0.47070841  0.00092319  0.71280560    -0.04300
C485        C  0.47033209  0.00014698  0.67154942     0.02900
C486        C  0.50558018  0.99782435  0.65062721    -0.03900
C487        C  0.54114104  0.99634473  0.67137361    -0.00100
C488        C  0.54156988  0.99791407  0.71255573    -0.02700
C489        C  0.43445410  0.00349431  0.73407621     0.36600
C490        C  0.57736473  0.99325551  0.65011564     0.40200
C491        C  0.43368765  0.00167690  0.65054392     0.39300
C492        C  0.57835240  0.99823360  0.73340027     0.36300
C493        C  0.49147638  0.92921055  0.77637396     0.37000
C494        C  0.52412975  0.06927576  0.86162394     0.40200
N495        N  0.40441558  0.00286470  0.63378817    -0.37900
N496        N  0.40561647  0.00556959  0.75122450    -0.39500
N497        N  0.60612476  0.99056226  0.63292792    -0.37200
N498        N  0.60771568  0.99894999  0.75004077    -0.39600
N499        N  0.53023118  0.09834907  0.76169181    -0.39400
N500        N  0.53135727  0.09735355  0.87908131    -0.37000
N501        N  0.48783975  0.89974447  0.87633137    -0.38000
N502        N  0.48534337  0.90083145  0.75899157    -0.39700
C503        C  0.52611805  0.96978252  0.21251644    -0.04600
C504        C  0.51349812  0.00283281  0.23373017     0.09500
C505        C  0.49946227  0.03551315  0.21316686    -0.02000
C506        C  0.49900912  0.03550075  0.17193803    -0.00300
C507        C  0.51192849  0.00258497  0.15079957    -0.03900
C508        C  0.52524124  0.96963522  0.17130102     0.03100
C509        C  0.51505238  0.00320476  0.27769614     0.10000
C510        C  0.48521401  0.06910574  0.23450853     0.35900
C511        C  0.53772315  0.93542288  0.14981589     0.39300
C512        C  0.55094342  0.00819147  0.29751581    -0.04300
C513        C  0.55238791  0.00859997  0.33875321     0.02900
C514        C  0.51801620  0.00372149  0.36063924    -0.03900
C515        C  0.48222326  0.99833980  0.34083077    -0.00100
C516        C  0.48070081  0.99833472  0.29964070    -0.02700
C517        C  0.58643212  0.01292584  0.27534923     0.36600
C518        C  0.44692196  0.99252363  0.36302651     0.40200
C519        C  0.58929192  0.01381999  0.35877291     0.39300
C520        C  0.44372410  0.99314175  0.27973488     0.36300
C521        C  0.53956368  0.93567786  0.23321330     0.37000
C522        C  0.48569783  0.06958139  0.15110422     0.40200
N523        N  0.61875717  0.01791454  0.37477245    -0.37900
N524        N  0.61470899  0.01648179  0.25753569    -0.39500
N525        N  0.41884462  0.98785341  0.38088914    -0.37200
N526        N  0.41421312  0.98924429  0.26377625    -0.39600
N527        N  0.47345061  0.09572140  0.25158613    -0.39400
N528        N  0.47521734  0.09676457  0.13435400    -0.37000
N529        N  0.54759953  0.90818038  0.13250979    -0.38000
N530        N  0.55032644  0.90850334  0.24979645    -0.39700
C531        C  0.98927953  0.70528638  0.52871788    -0.04600
C532        C  0.00363870  0.72798562  0.49774050     0.09500
C533        C  0.01895671  0.70902269  0.46454468    -0.02000
C534        C  0.01972970  0.66784211  0.46222287    -0.00300
C535        C  0.00585356  0.64509107  0.49341335    -0.03900
C536        C  0.99076226  0.66409441  0.52675394     0.03100
C537        C  0.00195814  0.77189372  0.49956088     0.10000
C538        C  0.03349158  0.73208907  0.43251993     0.35900
C539        C  0.97673584  0.64110870  0.55908340     0.39300
C540        C  0.03325472  0.79362479  0.51553574    -0.04300
C541        C  0.03216892  0.83487290  0.51600343     0.02900
C542        C  0.99988228  0.85488903  0.50021403    -0.03900
C543        C  0.96861797  0.83308102  0.48417473    -0.00100
C544        C  0.96954473  0.79186148  0.48411616    -0.02700
C545        C  0.06690331  0.77341671  0.53090396     0.36600
C546        C  0.93564626  0.85317410  0.46724452     0.40200
C547        C  0.06476896  0.85685235  0.53180984     0.39300
C548        C  0.93722152  0.76981488  0.46785367     0.36300
C549        C  0.97229350  0.72441366  0.56231993     0.37000
C550        C  0.03396590  0.64877391  0.42731785     0.40200
N551        N  0.09074131  0.87451413  0.54436602    -0.37900
N552        N  0.09378584  0.75721702  0.54304708    -0.39500
N553        N  0.90953660  0.86932738  0.45346139    -0.37200
N554        N  0.91146449  0.75209376  0.45494344    -0.39600
N555        N  0.04503329  0.75068251  0.40705470    -0.39400
N556        N  0.04519561  0.63346284  0.39943814    -0.37000
N557        N  0.96561183  0.62263771  0.58482737    -0.38000
N558        N  0.95849968  0.73971586  0.58901035    -0.39700
C559        C  0.03053563  0.20620233  0.49456131    -0.04600
C560        C  0.99561032  0.22758789  0.49175597     0.09500
C561        C  0.95968751  0.20746731  0.49081020    -0.02000
C562        C  0.95867636  0.16635844  0.49319193    -0.00300
C563        C  0.99366247  0.14491641  0.49548891    -0.03900
C564        C  0.02959707  0.16507356  0.49597110     0.03100
C565        C  0.99663507  0.27140009  0.49051798     0.10000
C566        C  0.92376864  0.22920105  0.48718405     0.35900
C567        C  0.06564841  0.14333113  0.49810704     0.39300
C568        C  0.00020107  0.29096182  0.45465171    -0.04300
C569        C  0.00104205  0.33215561  0.45360031     0.02900
C570        C  0.99832488  0.35420818  0.48843788    -0.03900
C571        C  0.99484997  0.33454082  0.52430938    -0.00100
C572        C  0.99420430  0.29337032  0.52534161    -0.02700
C573        C  0.00327553  0.26855165  0.41885448     0.36600
C574        C  0.99184110  0.35678488  0.56020615     0.40200
C575        C  0.00509211  0.35196101  0.41668759     0.39300
C576        C  0.99150268  0.27341541  0.56231313     0.36300
C577        C  0.06746598  0.22666341  0.49627923     0.37000
C578        C  0.92163973  0.14601833  0.49323598     0.40200
N579        N  0.00857817  0.36784575  0.38728857    -0.37900
N580        N  0.00580961  0.25056030  0.39035040    -0.39500
N581        N  0.98924631  0.37458411  0.58882029    -0.37200
N582        N  0.98952618  0.25730078  0.59173152    -0.39600
N583        N  0.89516432  0.24663826  0.48412588    -0.39400
N584        N  0.89211632  0.12971305  0.49320924    -0.37000
N585        N  0.09429789  0.12580026  0.49994867    -0.38000
N586        N  0.09691123  0.24305849  0.49777844    -0.39700
C587        C  0.02854418  0.78667700  0.98798576    -0.04600
C588        C  0.99182814  0.76909214  0.99319237     0.09500
C589        C  0.95846786  0.79247732  0.99755863    -0.02000
C590        C  0.96176812  0.83340258  0.99690021    -0.00300
C591        C  0.99871214  0.85117796  0.99287509    -0.03900
C592        C  0.03213781  0.82761079  0.98856307     0.03100
C593        C  0.98840178  0.72582480  0.99575146     0.10000
C594        C  0.92085337  0.77424967  0.00356666     0.35900
C595        C  0.07023428  0.84540464  0.98444244     0.39300
C596        C  0.99208655  0.70745767  0.03222459    -0.04300
C597        C  0.98842629  0.66668608  0.03492224     0.02900
C598        C  0.98102649  0.64416376  0.00114557    -0.03900
C599        C  0.97705583  0.66256480  0.96471104    -0.00100
C600        C  0.98109089  0.70330951  0.96196459    -0.02700
C601        C  0.00035868  0.73059508  0.06680855     0.36600
C602        C  0.96947617  0.63934221  0.93002872     0.40200
C603        C  0.99270093  0.64774650  0.07230800     0.39300
C604        C  0.97871316  0.72205489  0.92432427     0.36300
C605        C  0.06255930  0.76249110  0.98199846     0.37000
C606        C  0.92730088  0.85715507  0.00215377     0.40200
N607        N  0.99610074  0.63257725  0.10211890    -0.37900
N608        N  0.00712300  0.74918680  0.09427792    -0.39500
N609        N  0.96337904  0.62066104  0.90246681    -0.37200
N610        N  0.97712888  0.73701420  0.89426131    -0.39600
N611        N  0.89095583  0.75955112  0.00853340    -0.39400
N612        N  0.89982989  0.87611679  0.00635627    -0.37000
N613        N  0.10065544  0.85959461  0.98143569    -0.38000
N614        N  0.08957511  0.74308989  0.97696226    -0.39700
C615        C  0.96024781  0.20938120  0.99478039    -0.04600
C616        C  0.99313550  0.23395594  0.99700816     0.09500
C617        C  0.03069687  0.21764055  0.99994081    -0.02000
C618        C  0.03533069  0.17685821  0.00093579    -0.00300
C619        C  0.00232576  0.15220341  0.99953551    -0.03900
C620        C  0.96470871  0.16869210  0.99658464     0.03100
C621        C  0.98796142  0.27714036  0.99764850     0.10000
C622        C  0.06453016  0.24291672  0.00255413     0.35900
C623        C  0.93043739  0.14387330  0.99477300     0.39300
C624        C  0.97363353  0.29571093  0.03148882    -0.04300
C625        C  0.96884857  0.33641658  0.03234976     0.02900
C626        C  0.97908432  0.35881415  0.99966266    -0.03900
C627        C  0.99288263  0.34022918  0.96561838    -0.00100
C628        C  0.99700191  0.29942855  0.96449636    -0.02700
C629        C  0.96429943  0.27288096  0.06560485     0.36600
C630        C  0.00307453  0.36325547  0.93188098     0.40200
C631        C  0.95387632  0.35541373  0.06701078     0.39300
C632        C  0.01049894  0.28030869  0.92927650     0.36300
C633        C  0.92174624  0.22611832  0.99044505     0.37000
C634        C  0.07396230  0.16039998  0.00508287     0.40200
N635        N  0.94166707  0.37063797  0.09451514    -0.37900
N636        N  0.95676690  0.25454477  0.09271130    -0.39500
N637        N  0.01126847  0.38173080  0.90506101    -0.37200
N638        N  0.02129784  0.26501460  0.90121033    -0.39600
N639        N  0.09150827  0.26310407  0.00451778    -0.39400
N640        N  0.10474549  0.14722334  0.00845752    -0.37000
N641        N  0.90310180  0.12411071  0.99359193    -0.38000
N642        N  0.89109220  0.23956445  0.98701604    -0.39700
C643        C  0.79623647  0.00860205  0.96754912    -0.04600
C644        C  0.77623489  0.00479031  0.00302656     0.09500
C645        C  0.79712673  0.00089772  0.03820445    -0.02000
C646        C  0.83809818  0.00044699  0.03791192    -0.00300
C647        C  0.85836305  0.00488702  0.00241858    -0.03900
C648        C  0.83717710  0.00954610  0.96727329     0.03100
C649        C  0.73293956  0.00499128  0.00331764     0.10000
C650        C  0.77630225  0.99708115  0.07465802     0.35900
C651        C  0.85728226  0.01691248  0.93096592     0.39300
C652        C  0.71224582  0.96957614  0.00584389    -0.04300
C653        C  0.67135161  0.96978905  0.00656266     0.02900
C654        C  0.65111441  0.00536954  0.00414244    -0.03900
C655        C  0.67175942  0.04075379  0.00100446    -0.00100
C656        C  0.71268980  0.04057907  0.00072298    -0.02700
C657        C  0.73310575  0.93294838  0.00704857     0.36600
C658        C  0.65078322  0.07722753  0.99813179     0.40200
C659        C  0.64991583  0.93344677  0.00923392     0.39300
C660        C  0.73406422  0.07690423  0.99754113     0.36300
C661        C  0.77449445  0.01107337  0.93129635     0.37000
C662        C  0.85921045  0.99411236  0.07402169     0.40200
N663        N  0.63262351  0.90455886  0.01115959    -0.37900
N664        N  0.74978419  0.90373835  0.00789263    -0.39500
N665        N  0.63399340  0.10629714  0.99589281    -0.37200
N666        N  0.75120014  0.10581396  0.99480829    -0.39600
N667        N  0.75959170  0.99398455  0.10366155    -0.39400
N668        N  0.87603407  0.98897773  0.10281112    -0.37000
N669        N  0.87319363  0.02307820  0.90201019    -0.38000
N670        N  0.75695911  0.01279399  0.90249593    -0.39700
C671        C  0.22362186  0.00489004  0.97081218    -0.04600
C672        C  0.24217409  0.99200536  0.00504061     0.09500
C673        C  0.21986270  0.98149124  0.03762360    -0.02000
C674        C  0.17897998  0.98417801  0.03620120    -0.00300
C675        C  0.15998584  0.99683284  0.00170962    -0.03900
C676        C  0.18271522  0.00730089  0.96902550     0.03100
C677        C  0.28550494  0.99128017  0.00725364     0.10000
C678        C  0.23916534  0.96821588  0.07279949     0.35900
C679        C  0.16433025  0.01995841  0.93316203     0.39300
C680        C  0.30560992  0.02227927  0.02563051    -0.04300
C681        C  0.34653269  0.02309499  0.02564731     0.02900
C682        C  0.36751711  0.99247129  0.00797120    -0.03900
C683        C  0.34739486  0.96068915  0.99091622    -0.00100
C684        C  0.30642542  0.96042592  0.98997159    -0.02700
C685        C  0.28406359  0.05365028  0.04396756     0.36600
C686        C  0.36895059  0.92827949  0.97450143     0.40200
C687        C  0.36712066  0.05571643  0.04335351     0.39300
C688        C  0.28574033  0.92883249  0.97063324     0.36300
C689        C  0.24689811  0.01583278  0.93743605     0.37000
C690        C  0.15683457  0.97537367  0.07099025     0.40200
N691        N  0.38366566  0.08160017  0.05756911    -0.37900
N692        N  0.26679049  0.07853351  0.05873071    -0.39500
N693        N  0.38627647  0.90245857  0.96151999    -0.37200
N694        N  0.26924223  0.90380846  0.95488859    -0.39600
N695        N  0.25458147  0.95771088  0.10085353    -0.39400
N696        N  0.13923799  0.96838990  0.09875842    -0.37000
N697        N  0.14983810  0.03025582  0.90454126    -0.38000
N698        N  0.26568389  0.02438271  0.91093356    -0.39700
C699        C  0.99760007  0.97314497  0.78652521    -0.04600
C700        C  0.00653133  0.00742364  0.76615361     0.09500
C701        C  0.01678243  0.04160281  0.78678369    -0.02000
C702        C  0.01796141  0.04158430  0.82789441    -0.00300
C703        C  0.00946866  0.00697992  0.84859835    -0.03900
C704        C  0.99950366  0.97266387  0.82746447     0.03100
C705        C  0.00449100  0.00731312  0.72274422     0.10000
C706        C  0.02556859  0.07691065  0.76553124     0.35900
C707        C  0.99183087  0.93636732  0.84752400     0.39300
C708        C  0.97075496  0.02089335  0.70370192    -0.04300
C709        C  0.96794021  0.01887922  0.66279927     0.02900
C710        C  0.99879590  0.00302375  0.64082006    -0.03900
C711        C  0.03252965  0.98938797  0.65994042    -0.00100
C712        C  0.03545978  0.99176131  0.70081720    -0.02700
C713        C  0.93890178  0.03670991  0.72635169     0.36600
C714        C  0.06435268  0.97327799  0.63743356     0.40200
C715        C  0.93340759  0.03325545  0.64323372     0.39300
C716        C  0.07038760  0.97841231  0.72043451     0.36300
C717        C  0.98584601  0.93838188  0.76515645     0.37000
C718        C  0.02628137  0.07768871  0.84859280     0.40200
N719        N  0.90599531  0.04495635  0.62754793    -0.37900
N720        N  0.91359753  0.04935919  0.74455601    -0.39500
N721        N  0.08959853  0.96029436  0.61937908    -0.37200
N722        N  0.09825138  0.96784401  0.73614548    -0.39600
N723        N  0.03244105  0.10502586  0.74845596    -0.39400
N724        N  0.03281350  0.10658910  0.86495353    -0.37000
N725        N  0.98556835  0.90747913  0.86352667    -0.38000
N726        N  0.97633545  0.91076345  0.74805565    -0.39700
C727        C  0.02058288  0.03730742  0.21141256    -0.04600
C728        C  0.02062438  0.00206662  0.23214635     0.09500
C729        C  0.02228715  0.96628939  0.21191754    -0.02000
C730        C  0.02066074  0.96549155  0.17092630    -0.00300
C731        C  0.01907243  0.00076717  0.14985492    -0.03900
C732        C  0.02033306  0.03674238  0.17035641     0.03100
C733        C  0.01536808  0.00222883  0.27520031     0.10000
C734        C  0.02517917  0.93025821  0.23356039     0.35900
C735        C  0.02192310  0.07325969  0.14935898     0.39300
C736        C  0.97773369  0.99707686  0.29066844    -0.04300
C737        C  0.97258040  0.99444934  0.33120130     0.02900
C738        C  0.00482479  0.99881075  0.35642423    -0.03900
C739        C  0.04226976  0.00534922  0.34100581    -0.00100
C740        C  0.04767006  0.00622272  0.30038570    -0.02700
C741        C  0.94432998  0.99494719  0.26471763     0.36600
C742        C  0.07507956  0.01145868  0.36710715     0.40200
C743        C  0.93416030  0.98750520  0.34704104     0.39300
C744        C  0.08637760  0.01085382  0.28444683     0.36300
C745        C  0.02025083  0.07410035  0.23245211     0.37000
C746        C  0.01825145  0.92824317  0.15080980     0.40200
N747        N  0.90350507  0.98186034  0.35964897    -0.37900
N748        N  0.91780824  0.99359287  0.24384163    -0.39500
N749        N  0.10105174  0.01654486  0.38813713    -0.37200
N750        N  0.11730939  0.01437757  0.27174835    -0.39600
N751        N  0.02783007  0.90166608  0.25100243    -0.39400
N752        N  0.01607148  0.89850438  0.13485204    -0.37000
N753        N  0.02326906  0.10236549  0.13260737    -0.38000
N754        N  0.02005601  0.10342709  0.24927489    -0.39700
loop_ 
_geom_bond_atom_site_label_1 
_geom_bond_atom_site_label_2 
_geom_bond_distance 
_geom_bond_site_symmetry_2 
_ccdc_geom_bond_type 
Zn1           O5   1.948   1_564  S
Zn1           O6   2.013       .  S
Zn1          O10   1.998       .  S
Zn1          O17   2.013       .  S
Zn2           O5   1.949   1_654  S
Zn2           O7   1.996       .  S
Zn2           O9   2.004       .  S
Zn2          O13   2.008       .  S
Zn3           O5   1.962       .  S
Zn3           O8   2.023       .  S
Zn3          O11   2.020       .  S
Zn3          O14   2.024       .  S
Zn4           O5   1.945   1_665  S
Zn4          O12   1.995       .  S
Zn4          O15   2.000       .  S
Zn4          O16   2.017       .  S
O6           C18   1.273   1_565  A
O7           C19   1.271   1_655  A
O8           C20   1.275   1_545  A
O9           C18   1.272   1_655  A
O10          C20   1.272   1_554  A
O11          C19   1.274   1_556  A
O12          C21   1.272   1_665  A
O13          C22   1.272       .  A
O14          C21   1.274       .  A
O15          C22   1.271   1_566  A
O16          C23   1.273   1_655  A
O17          C23   1.273   1_554  A
C18         C731   1.486       .  S
C19         C619   1.483   1_554  S
C20         C675   1.491   1_556  S
C21         C703   1.491       .  S
C22         C647   1.483       .  S
C23         C591   1.484   1_455  S
N24          C29   1.357       .  A
N24          C28   1.352       .  A
N24          H56   1.038   1_655  S
N25          C32   1.350   1_655  A
N25          C33   1.354       .  A
N26          C31   1.350       .  A
N26          C30   1.356       .  A
N26          H57   1.037   1_655  S
N27          C34   1.354   1_655  A
N27          C35   1.351   1_655  A
C28          C36   1.388       .  A
C28          C44   1.418   1_565  A
C29          C45   1.419       .  A
C29          C37   1.386       .  A
C30          C38   1.386       .  A
C30          C47   1.417       .  A
C31          C46   1.415   1_545  A
C31          C39   1.388       .  A
C32          C44   1.415   1_455  A
C32          C40   1.388       .  A
C33          C47   1.415       .  A
C33          C41   1.385   1_655  A
C34          C42   1.385       .  A
C34          C45   1.415   1_455  A
C35          C43   1.387       .  A
C35          C46   1.416   1_455  A
C36          C37   1.379       .  A
C36          H48   1.082       .  S
C37          H49   1.082       .  S
C38          C39   1.375       .  A
C38          H50   1.082       .  S
C39          H51   1.082       .  S
C40          C41   1.372       .  A
C40          H52   1.082       .  S
C41          H53   1.082       .  S
C42          C43   1.374       .  A
C42          H54   1.082       .  S
C43          H55   1.082       .  S
C44         C710   1.492       .  S
C45         C542   1.510       .  S
C46         C738   1.489   1_655  S
C47         C563   1.505       .  S
N58          C63   1.356   1_545  A
N58          C62   1.350   1_545  A
N58          H90   1.038       .  S
N59          C66   1.350   1_565  A
N59          C67   1.354   1_565  A
N60          C65   1.350   1_545  A
N60          C64   1.356   1_545  A
N60          H91   1.038       .  S
N61          C68   1.354       .  A
N61          C69   1.349       .  A
C62          C70   1.388       .  A
C62          C78   1.416       .  A
C63          C79   1.416   1_565  A
C63          C71   1.385       .  A
C64          C72   1.384       .  A
C64          C81   1.414       .  A
C65          C80   1.417   1_566  A
C65          C73   1.390       .  A
C66          C78   1.416   1_546  A
C66          C74   1.388       .  A
C67          C81   1.413   1_545  A
C67          C75   1.384       .  A
C68          C76   1.384       .  A
C68          C79   1.413       .  A
C69          C77   1.388       .  A
C69          C80   1.415       .  A
C70          C71   1.376       .  A
C70          H82   1.082       .  S
C71          H83   1.082       .  S
C72          C73   1.375       .  A
C72          H84   1.082       .  S
C73          H85   1.082       .  S
C74          C75   1.375       .  A
C74          H86   1.082       .  S
C75          H87   1.082       .  S
C76          C77   1.373       .  A
C76          H88   1.082       .  S
C77          H89   1.082       .  S
C78         C682   1.491       .  S
C79         C507   1.505       .  S
C80         C654   1.486       .  S
C81         C479   1.506       .  S
N92          C97   1.358       .  A
N92          C96   1.353       .  A
N92         H124   1.034   1_554  S
N93         C100   1.351   1_554  A
N93         C101   1.355   1_554  A
N94          C99   1.351       .  A
N94          C98   1.357       .  A
N94         H125   1.037   1_554  S
N95         C102   1.355       .  A
N95         C103   1.352   1_554  A
C96         C104   1.388       .  A
C96         C112   1.421       .  A
C97         C113   1.422       .  A
C97         C105   1.386       .  A
C98         C106   1.385       .  A
C98         C115   1.416       .  A
C99         C114   1.417   1_455  A
C99         C107   1.389       .  A
C100        C112   1.419   1_456  A
C100        C108   1.389       .  A
C101        C115   1.415   1_556  A
C101        C109   1.384       .  A
C102        C110   1.386   1_554  A
C102        C113   1.419       .  A
C103        C111   1.387       .  A
C103        C114   1.417   1_556  A
C104        C105   1.378       .  A
C104        H116   1.082       .  S
C105        H117   1.082       .  S
C106        C107   1.374       .  A
C106        H118   1.082       .  S
C107        H119   1.082       .  S
C108        C109   1.373       .  A
C108        H120   1.082       .  S
C109        H121   1.082       .  S
C110        C111   1.375       .  A
C110        H122   1.082       .  S
C111        H123   1.082       .  S
C112        C598   1.492       .  S
C113        C423   1.511       .  S
C114        C626   1.492   1_554  S
C115        C451   1.507       .  S
N126        C131   1.356       .  A
N126        C130   1.351       .  A
N126        H158   1.037       .  S
N127        C134   1.351       .  A
N127        C135   1.355       .  A
N128        C133   1.352       .  A
N128        C132   1.357       .  A
N128        H159   1.034       .  S
N129        C136   1.355       .  A
N129        C137   1.351       .  A
C130        C138   1.388       .  A
C130        C146   1.416       .  A
C131        C147   1.417   1_655  A
C131        C139   1.386       .  A
C132        C140   1.386       .  A
C132        C149   1.420   1_455  A
C133        C148   1.420       .  A
C133        C141   1.389       .  A
C134        C146   1.418       .  A
C134        C142   1.388       .  A
C135        C149   1.418       .  A
C135        C143   1.385       .  A
C136        C144   1.384       .  A
C136        C147   1.417       .  A
C137        C145   1.388       .  A
C137        C148   1.418       .  A
C138        C139   1.376       .  A
C138        H150   1.082       .  S
C139        H151   1.082       .  S
C140        C141   1.375       .  A
C140        H152   1.082       .  S
C141        H153   1.082       .  S
C142        C143   1.373       .  A
C142        H154   1.082       .  S
C143        H155   1.082       .  S
C144        C145   1.374       .  A
C144        H156   1.082       .  S
C145        H157   1.082       .  S
C146        C395   1.491       .  S
C147        C535   1.510       .  S
C148        C374   1.491       .  S
C149        C570   1.508       .  S
Zn160       O164   1.952       .  S
Zn160       O165   2.011       .  S
Zn160       O169   2.013       .  S
Zn160       O176   1.997       .  S
Zn161       O164   1.957       .  S
Zn161       O166   2.005       .  S
Zn161       O168   2.016       .  S
Zn161       O172   2.023       .  S
Zn162       O164   1.958       .  S
Zn162       O167   2.019       .  S
Zn162       O170   2.021       .  S
Zn162       O173   2.016       .  S
Zn163       O164   1.959       .  S
Zn163       O171   2.010       .  S
Zn163       O174   2.002       .  S
Zn163       O175   2.012       .  S
O165        C177   1.273       .  A
O166        C178   1.273       .  A
O167        C179   1.274       .  A
O168        C177   1.273       .  A
O169        C179   1.273       .  A
O170        C178   1.274       .  A
O171        C180   1.272       .  A
O172        C181   1.274       .  A
O173        C180   1.273       .  A
O174        C181   1.272       .  A
O175        C182   1.272       .  A
O176        C182   1.271       .  A
C177        C402   1.482       .  S
C178        C255   1.484       .  S
C179        C346   1.490       .  S
C180        C367   1.479       .  S
C181        C311   1.484       .  S
C182        C283   1.479       .  S
N183        C188   1.353       .  A
N183        C187   1.356       .  A
N183        H215   1.039       .  S
N184        C191   1.355       .  A
N184        C192   1.352       .  A
N185        C190   1.357       .  A
N185        C189   1.351       .  A
N185        H216   1.038       .  S
N186        C193   1.351       .  A
N186        C194   1.355       .  A
C187        C195   1.386       .  A
C187        C203   1.418   1_556  A
C188        C204   1.419       .  A
C188        C196   1.388       .  A
C189        C197   1.388       .  A
C189        C206   1.419       .  A
C190        C205   1.419   1_554  A
C190        C198   1.386       .  A
C191        C203   1.417       .  A
C191        C199   1.385       .  A
C192        C206   1.418       .  A
C192        C200   1.388       .  A
C193        C201   1.388       .  A
C193        C204   1.419       .  A
C194        C202   1.384       .  A
C194        C205   1.418       .  A
C195        C196   1.376       .  A
C195        H207   1.082       .  S
C196        H208   1.082       .  S
C197        C198   1.375       .  A
C197        H209   1.082       .  S
C198        H210   1.082       .  S
C199        C200   1.374       .  A
C199        H211   1.082       .  S
C200        H212   1.082       .  S
C201        C202   1.374       .  A
C201        H213   1.082       .  S
C202        H214   1.082       .  S
C203        C458   1.506       .  S
C204        C339   1.494       .  S
C205        C430   1.509       .  S
C206        C318   1.492       .  S
N217        C222   1.358       .  A
N217        C221   1.351       .  A
N217        H249   1.035       .  S
N218        C225   1.352       .  A
N218        C226   1.355       .  A
N219        C224   1.353       .  A
N219        C223   1.357       .  A
N219        H250   1.036       .  S
N220        C227   1.354       .  A
N220        C228   1.350       .  A
C221        C229   1.387       .  A
C221        C237   1.418       .  A
C222        C238   1.421       .  A
C222        C230   1.387       .  A
C223        C231   1.385       .  A
C223        C240   1.418       .  A
C224        C239   1.421       .  A
C224        C232   1.390       .  A
C225        C237   1.417       .  A
C225        C233   1.388       .  A
C226        C240   1.415   1_545  A
C226        C234   1.385       .  A
C227        C235   1.385       .  A
C227        C238   1.416   1_565  A
C228        C236   1.388       .  A
C228        C239   1.417       .  A
C229        C230   1.377       .  A
C229        H241   1.082       .  S
C230        H242   1.082       .  S
C231        C232   1.377       .  A
C231        H243   1.082       .  S
C232        H244   1.082       .  S
C233        C234   1.371       .  A
C233        H245   1.082       .  S
C234        H246   1.082       .  S
C235        C236   1.373       .  A
C235        H247   1.082       .  S
C236        H248   1.082       .  S
C237        C262   1.491       .  S
C238        C514   1.508       .  S
C239        C290   1.491       .  S
C240        C486   1.506       .  S
C251        C252   1.409       .  A
C251        C256   1.408       .  A
C251        C269   1.451       .  S
C252        C257   1.492       .  S
C252        C253   1.410       .  A
C253        C254   1.411       .  A
C253        C258   1.450       .  S
C254        C255   1.415       .  A
C254        C270   1.451       .  S
C255        C256   1.415       .  A
C256        C259   1.452       .  S
C257        C260   1.410       .  A
C257        C264   1.411       .  A
C258        N275   1.157       .  T
C259        N277   1.157       .  T
C260        C261   1.408       .  A
C260        C265   1.450       .  S
C261        C262   1.411       .  A
C261        C267   1.451       .  S
C262        C263   1.411       .  A
C263        C264   1.409       .  A
C263        C266   1.450       .  S
C264        C268   1.450       .  S
C265        N272   1.157       .  T
C266        N273   1.157       .  T
C267        N271   1.157       .  T
C268        N274   1.157       .  T
C269        N278   1.157       .  T
C270        N276   1.157       .  T
C279        C280   1.409       .  A
C279        C284   1.406       .  A
C279        C297   1.451       .  S
C280        C285   1.489       .  S
C280        C281   1.410       .  A
C281        C282   1.410       .  A
C281        C286   1.450       .  S
C282        C283   1.414       .  A
C282        C298   1.451       .  S
C283        C284   1.414       .  A
C284        C287   1.452       .  S
C285        C288   1.411       .  A
C285        C292   1.409       .  A
C286        N303   1.157       .  T
C287        N305   1.157       .  T
C288        C289   1.409       .  A
C288        C293   1.450       .  S
C289        C290   1.411       .  A
C289        C295   1.450       .  S
C290        C291   1.412       .  A
C291        C292   1.406       .  A
C291        C294   1.451       .  S
C292        C296   1.451       .  S
C293        N300   1.157       .  T
C294        N301   1.157       .  T
C295        N299   1.157       .  T
C296        N302   1.157       .  T
C297        N306   1.157       .  T
C298        N304   1.157       .  T
C307        C308   1.411       .  A
C307        C312   1.411       .  A
C307        C325   1.451       .  S
C308        C313   1.493       .  S
C308        C309   1.409       .  A
C309        C310   1.408       .  A
C309        C314   1.451       .  S
C310        C311   1.415       .  A
C310        C326   1.452       .  S
C311        C312   1.414       .  A
C312        C315   1.451       .  S
C313        C316   1.412       .  A
C313        C320   1.410       .  A
C314        N331   1.157       .  T
C315        N333   1.157       .  T
C316        C317   1.410       .  A
C316        C321   1.450       .  S
C317        C318   1.411       .  A
C317        C323   1.450       .  S
C318        C319   1.411       .  A
C319        C320   1.408       .  A
C319        C322   1.450       .  S
C320        C324   1.450       .  S
C321        N328   1.157       .  T
C322        N329   1.157       .  T
C323        N327   1.157       .  T
C324        N330   1.157       .  T
C325        N334   1.157       .  T
C326        N332   1.157       .  T
C335        C336   1.412       .  A
C335        C340   1.407       .  A
C335        C353   1.451       .  S
C336        C341   1.496       .  S
C336        C337   1.412       .  A
C337        C338   1.412       .  A
C337        C342   1.450       .  S
C338        C339   1.412       .  A
C338        C354   1.450       .  S
C339        C340   1.410       .  A
C340        C343   1.450       .  S
C341        C344   1.410       .  A
C341        C348   1.410       .  A
C342        N359   1.157       .  T
C343        N361   1.157       .  T
C344        C345   1.411       .  A
C344        C349   1.451       .  S
C345        C346   1.417       .  A
C345        C351   1.452       .  S
C346        C347   1.417       .  A
C347        C348   1.411       .  A
C347        C350   1.451       .  S
C348        C352   1.451       .  S
C349        N356   1.157       .  T
C350        N357   1.157       .  T
C351        N355   1.158       .  T
C352        N358   1.157       .  T
C353        N362   1.157       .  T
C354        N360   1.157       .  T
C363        C364   1.411       .  A
C363        C368   1.410       .  A
C363        C381   1.451       .  S
C364        C369   1.491       .  S
C364        C365   1.409       .  A
C365        C366   1.409       .  A
C365        C370   1.450       .  S
C366        C367   1.413       .  A
C366        C382   1.451       .  S
C367        C368   1.413       .  A
C368        C371   1.451       .  S
C369        C372   1.410       .  A
C369        C376   1.411       .  A
C370        N387   1.157       .  T
C371        N389   1.157       .  T
C372        C373   1.409       .  A
C372        C377   1.450       .  S
C373        C374   1.412       .  A
C373        C379   1.450       .  S
C374        C375   1.410       .  A
C375        C376   1.408       .  A
C375        C378   1.450       .  S
C376        C380   1.450       .  S
C377        N384   1.157       .  T
C378        N385   1.157       .  T
C379        N383   1.157       .  T
C380        N386   1.157       .  T
C381        N390   1.157       .  T
C382        N388   1.157       .  T
C391        C392   1.412       .  A
C391        C396   1.409       .  A
C391        C409   1.450       .  S
C392        C397   1.492       .  S
C392        C393   1.411       .  A
C393        C394   1.408       .  A
C393        C398   1.450       .  S
C394        C395   1.412       .  A
C394        C410   1.451       .  S
C395        C396   1.411       .  A
C396        C399   1.450       .  S
C397        C400   1.411       .  A
C397        C404   1.410       .  A
C398        N415   1.157       .  T
C399        N417   1.157       .  T
C400        C401   1.410       .  A
C400        C405   1.451       .  S
C401        C402   1.413       .  A
C401        C407   1.451       .  S
C402        C403   1.414       .  A
C403        C404   1.409       .  A
C403        C406   1.451       .  S
C404        C408   1.451       .  S
C405        N412   1.157       .  T
C406        N413   1.157       .  T
C407        N411   1.157       .  T
C408        N414   1.157       .  T
C409        N418   1.157       .  T
C410        N416   1.157       .  T
C419        C420   1.414       .  A
C419        C424   1.418       .  A
C419        C437   1.450       .  S
C420        C425   1.512       .  S
C420        C421   1.414   1_554  A
C421        C422   1.416       .  A
C421        C426   1.449       .  S
C422        C423   1.414   1_556  A
C422        C438   1.449       .  S
C423        C424   1.415       .  A
C424        C427   1.449       .  S
C425        C428   1.414       .  A
C425        C432   1.414   1_554  A
C426        N443   1.157       .  T
C427        N445   1.157       .  T
C428        C429   1.417       .  A
C428        C433   1.449       .  S
C429        C430   1.413   1_554  A
C429        C435   1.450       .  S
C430        C431   1.413       .  A
C431        C432   1.417       .  A
C431        C434   1.450       .  S
C432        C436   1.449       .  S
C433        N440   1.157       .  T
C434        N441   1.157       .  T
C435        N439   1.157       .  T
C436        N442   1.157       .  T
C437        N446   1.157       .  T
C438        N444   1.157       .  T
C447        C448   1.413       .  A
C447        C452   1.415       .  A
C447        C465   1.450       .  S
C448        C453   1.508       .  S
C448        C449   1.413   1_554  A
C449        C450   1.416       .  A
C449        C454   1.450       .  S
C450        C451   1.414   1_556  A
C450        C466   1.450       .  S
C451        C452   1.413       .  A
C452        C455   1.449       .  S
C453        C456   1.414       .  A
C453        C460   1.413       .  A
C454        N471   1.157       .  T
C455        N473   1.157       .  T
C456        C457   1.417       .  A
C456        C461   1.450       .  S
C457        C458   1.414       .  A
C457        C463   1.449       .  S
C458        C459   1.413       .  A
C459        C460   1.414       .  A
C459        C462   1.450       .  S
C460        C464   1.450       .  S
C461        N468   1.157       .  T
C462        N469   1.157       .  T
C463        N467   1.157       .  T
C464        N470   1.157   1_554  T
C465        N474   1.157       .  T
C466        N472   1.157       .  T
C475        C476   1.414       .  A
C475        C480   1.416       .  A
C475        C493   1.450       .  S
C476        C481   1.509       .  S
C476        C477   1.414   1_565  A
C477        C478   1.415       .  A
C477        C482   1.449       .  S
C478        C479   1.413   1_545  A
C478        C494   1.450       .  S
C479        C480   1.413       .  A
C480        C483   1.450       .  S
C481        C484   1.414   1_565  A
C481        C488   1.413       .  A
C482        N499   1.157       .  T
C483        N501   1.157       .  T
C484        C485   1.416       .  A
C484        C489   1.450       .  S
C485        C486   1.413   1_545  A
C485        C491   1.449       .  S
C486        C487   1.413       .  A
C487        C488   1.414       .  A
C487        C490   1.450       .  S
C488        C492   1.449       .  S
C489        N496   1.157       .  T
C490        N497   1.157       .  T
C491        N495   1.157       .  T
C492        N498   1.157       .  T
C493        N502   1.157       .  T
C494        N500   1.157       .  T
C503        C504   1.414   1_565  A
C503        C508   1.415       .  A
C503        C521   1.450       .  S
C504        C509   1.510       .  S
C504        C505   1.415       .  A
C505        C506   1.415       .  A
C505        C510   1.450       .  S
C506        C507   1.413       .  A
C506        C522   1.450       .  S
C507        C508   1.413   1_545  A
C508        C511   1.450       .  S
C509        C512   1.415       .  A
C509        C516   1.414   1_545  A
C510        N527   1.157       .  T
C511        N529   1.157       .  T
C512        C513   1.416       .  A
C512        C517   1.450       .  S
C513        C514   1.413       .  A
C513        C519   1.449       .  S
C514        C515   1.414   1_545  A
C515        C516   1.415       .  A
C515        C518   1.450       .  S
C516        C520   1.450       .  S
C517        N524   1.157       .  T
C518        N525   1.157       .  T
C519        N523   1.157       .  T
C520        N526   1.157       .  T
C521        N530   1.157       .  T
C522        N528   1.157       .  T
C531        C532   1.413   1_655  A
C531        C536   1.417       .  A
C531        C549   1.449       .  S
C532        C537   1.510       .  S
C532        C533   1.413       .  A
C533        C534   1.416       .  A
C533        C538   1.449       .  S
C534        C535   1.414       .  A
C534        C550   1.449       .  S
C535        C536   1.415   1_455  A
C536        C539   1.450       .  S
C537        C540   1.413       .  A
C537        C544   1.413   1_455  A
C538        N555   1.157       .  T
C539        N557   1.157       .  T
C540        C541   1.417       .  A
C540        C545   1.449       .  S
C541        C542   1.415   1_455  A
C541        C547   1.450       .  S
C542        C543   1.415       .  A
C543        C544   1.416       .  A
C543        C546   1.450       .  S
C544        C548   1.450       .  S
C545        N552   1.157       .  T
C546        N553   1.157       .  T
C547        N551   1.157       .  T
C548        N554   1.157       .  T
C549        N558   1.157       .  T
C550        N556   1.157       .  T
C559        C560   1.412   1_455  A
C559        C564   1.414       .  A
C559        C577   1.449       .  S
C560        C565   1.506       .  S
C560        C561   1.413       .  A
C561        C562   1.415       .  A
C561        C566   1.450       .  S
C562        C563   1.414       .  A
C562        C578   1.450       .  S
C563        C564   1.414   1_655  A
C564        C567   1.450       .  S
C565        C568   1.412   1_655  A
C565        C572   1.412       .  A
C566        N583   1.157       .  T
C567        N585   1.157       .  T
C568        C569   1.415       .  A
C568        C573   1.450       .  S
C569        C570   1.415   1_455  A
C569        C575   1.450       .  S
C570        C571   1.414       .  A
C571        C572   1.414       .  A
C571        C574   1.449       .  S
C572        C576   1.450       .  S
C573        N580   1.157       .  T
C574        N581   1.157       .  T
C575        N579   1.157       .  T
C576        N582   1.157       .  T
C577        N586   1.157       .  T
C578        N584   1.157       .  T
C587        C588   1.410   1_455  A
C587        C592   1.411       .  A
C587        C605   1.451       .  S
C588        C593   1.493       .  S
C588        C589   1.410       .  A
C589        C590   1.410       .  A
C589        C594   1.451   1_556  S
C590        C591   1.415       .  A
C590        C606   1.451   1_556  S
C591        C592   1.415   1_655  A
C592        C595   1.451       .  S
C593        C596   1.411   1_556  A
C593        C600   1.410       .  A
C594        N611   1.157       .  T
C595        N613   1.157       .  T
C596        C597   1.409       .  A
C596        C601   1.450   1_655  S
C597        C598   1.411       .  A
C597        C603   1.450       .  S
C598        C599   1.412   1_554  A
C599        C600   1.409       .  A
C599        C602   1.450       .  S
C600        C604   1.450       .  S
C601        N608   1.157       .  T
C602        N609   1.157       .  T
C603        N607   1.157       .  T
C604        N610   1.157       .  T
C605        N614   1.157       .  T
C606        N612   1.157       .  T
C615        C616   1.410       .  A
C615        C620   1.408       .  A
C615        C633   1.452       .  S
C616        C621   1.494       .  S
C616        C617   1.412   1_655  A
C617        C618   1.410   1_556  A
C617        C622   1.451   1_556  S
C618        C619   1.414   1_554  A
C618        C634   1.451       .  S
C619        C620   1.416   1_455  A
C620        C623   1.452       .  S
C621        C624   1.413   1_556  A
C621        C628   1.411       .  A
C622        N639   1.157       .  T
C623        N641   1.158       .  T
C624        C625   1.408       .  A
C624        C629   1.451       .  S
C625        C626   1.410   1_554  A
C625        C631   1.450       .  S
C626        C627   1.412       .  A
C627        C628   1.409       .  A
C627        C630   1.451   1_655  S
C628        C632   1.451   1_655  S
C629        N636   1.157       .  T
C630        N637   1.157       .  T
C631        N635   1.157       .  T
C632        N638   1.157       .  T
C633        N642   1.157       .  T
C634        N640   1.157       .  T
C643        C644   1.408   1_556  A
C643        C648   1.407       .  A
C643        C661   1.452       .  S
C644        C649   1.488       .  S
C644        C645   1.409       .  A
C645        C646   1.408       .  A
C645        C650   1.451   1_545  S
C646        C647   1.415       .  A
C646        C662   1.451   1_545  S
C647        C648   1.416   1_554  A
C648        C651   1.452       .  S
C649        C652   1.410   1_545  A
C649        C656   1.411       .  A
C650        N667   1.157       .  T
C651        N669   1.157       .  T
C652        C653   1.406       .  A
C652        C657   1.450       .  S
C653        C654   1.410   1_565  A
C653        C659   1.451       .  S
C654        C655   1.410       .  A
C655        C656   1.407       .  A
C655        C658   1.451   1_554  S
C656        C660   1.451   1_554  S
C657        N664   1.157       .  T
C658        N665   1.157       .  T
C659        N663   1.157       .  T
C660        N666   1.157       .  T
C661        N670   1.157       .  T
C662        N668   1.157       .  T
C671        C672   1.409   1_546  A
C671        C676   1.409       .  A
C671        C689   1.452       .  S
C672        C677   1.491       .  S
C672        C673   1.408       .  A
C673        C674   1.409       .  A
C673        C678   1.452       .  S
C674        C675   1.421       .  A
C674        C690   1.452       .  S
C675        C676   1.418   1_564  A
C676        C679   1.451       .  S
C677        C680   1.411   1_565  A
C677        C684   1.411   1_554  A
C678        N695   1.157       .  T
C679        N697   1.157       .  T
C680        C681   1.406       .  A
C680        C685   1.451       .  S
C681        C682   1.412   1_545  A
C681        C687   1.451       .  S
C682        C683   1.412   1_554  A
C683        C684   1.408       .  A
C683        C686   1.451       .  S
C684        C688   1.450       .  S
C685        N692   1.157       .  T
C686        N693   1.157       .  T
C687        N691   1.157       .  T
C688        N694   1.157       .  T
C689        N698   1.157       .  T
C690        N696   1.158       .  T
C699        C700   1.407   1_665  A
C699        C704   1.407       .  A
C699        C717   1.452       .  S
C700        C705   1.492       .  S
C700        C701   1.409       .  A
C701        C702   1.412       .  A
C701        C706   1.451       .  S
C702        C703   1.419       .  A
C702        C718   1.451       .  S
C703        C704   1.419   1_445  A
C704        C707   1.452       .  S
C705        C708   1.410   1_455  A
C705        C712   1.411   1_545  A
C706        N723   1.157       .  T
C707        N725   1.157       .  T
C708        C709   1.408       .  A
C708        C713   1.450       .  S
C709        C710   1.413       .  A
C709        C715   1.450       .  S
C710        C711   1.412   1_645  A
C711        C712   1.408       .  A
C711        C714   1.451       .  S
C712        C716   1.451       .  S
C713        N720   1.157       .  T
C714        N721   1.157       .  T
C715        N719   1.157       .  T
C716        N722   1.157       .  T
C717        N726   1.157       .  T
C718        N724   1.158       .  T
C727        C728   1.408       .  A
C727        C732   1.409       .  A
C727        C745   1.451       .  S
C728        C733   1.490       .  S
C728        C729   1.408   1_545  A
C729        C730   1.408       .  A
C729        C734   1.451       .  S
C730        C731   1.416   1_565  A
C730        C746   1.451       .  S
C731        C732   1.418       .  A
C732        C735   1.452       .  S
C733        C736   1.412   1_445  A
C733        C740   1.409       .  A
C734        N751   1.157       .  T
C735        N753   1.158       .  T
C736        C737   1.407       .  A
C736        C741   1.451       .  S
C737        C738   1.410   1_655  A
C737        C743   1.450       .  S
C738        C739   1.412   1_565  A
C739        C740   1.408       .  A
C739        C742   1.451       .  S
C740        C744   1.450       .  S
C741        N748   1.157       .  T
C742        N749   1.157       .  T
C743        N747   1.157       .  T
C744        N750   1.157       .  T
C745        N754   1.157       .  T
C746        N752   1.157       .  T
