geometry optimzed in LAMMPS
_audit_creation_date              2020-12-01 
_audit_creation_method            'lammps2cif' 
_symmetry_space_group_name_H-M    'P1' 
_symmetry_Int_Tables_number       1 
_symmetry_cell_setting            triclinic 
loop_ 
_symmetry_equiv_pos_as_xyz 
  x,y,z 
_cell_length_a                    71.33202102 
_cell_length_b                    71.24044085420077 
_cell_length_c                    71.21316082724569 
_cell_angle_alpha                 89.9654246423401 
_cell_angle_beta                  89.99536230520103 
_cell_angle_gamma                 89.96021561880471 
loop_ 
_atom_site_label 
_atom_site_type_symbol 
_atom_site_fract_x 
_atom_site_fract_y 
_atom_site_fract_z 
_atom_site_charge 
N1          N  0.26572380  0.72993668  0.79163741    -0.26800
N2          N  0.25347112  0.74222149  0.79820271    -0.34600
C3          C  0.25958974  0.74874696  0.81482466     0.01600
C4          C  0.27652454  0.74016699  0.81893261     0.07600
C5          C  0.27996874  0.72833106  0.80390541    -0.05500
H6          H  0.25230003  0.75907162  0.82323638     0.08300
H7          H  0.29207524  0.71939531  0.80190353     0.09500
Cu8        Cu  0.22956553  0.75040643  0.78378731     0.44200
Cu9        Cu  0.26260519  0.71600893  0.76625353     0.42000
Cu10       Cu  0.22482877  0.73219011  0.73659444     0.43900
N11         N  0.20924325  0.75928006  0.76495747    -0.34200
N12         N  0.20818747  0.75332030  0.74742742    -0.28400
C13         C  0.19467383  0.76291693  0.73844610    -0.04500
C14         C  0.18662221  0.77543771  0.75095925     0.07700
C15         C  0.19619890  0.77261821  0.76767412     0.01500
H16         H  0.19118810  0.76106931  0.72376246     0.09100
H17         H  0.19399245  0.77985270  0.78086059     0.08200
N18         N  0.24175334  0.70957297  0.73004430    -0.35600
N19         N  0.25549262  0.70351219  0.74093746    -0.27800
C20         C  0.26303718  0.68801772  0.73323366    -0.03000
C21         C  0.25359198  0.68423120  0.71670074     0.05600
C22         C  0.24020622  0.69816217  0.71510557     0.03700
H23         H  0.27434411  0.67995153  0.73934897     0.08800
H24         H  0.22976718  0.69959455  0.70417434     0.07600
N25         N  0.73943690  0.86104567  0.19459625    -0.26800
N26         N  0.75664182  0.86195049  0.18777557    -0.34600
C27         C  0.76577635  0.87631423  0.19589605     0.01600
C28         C  0.75371324  0.88525359  0.20827752     0.07600
C29         C  0.73708696  0.87513447  0.20697098    -0.05500
H30         H  0.78019997  0.87990946  0.19295925     0.08300
H31         H  0.72414107  0.87786038  0.21437569     0.09500
Cu32       Cu  0.76656297  0.84489595  0.16643631     0.44200
Cu33       Cu  0.72024952  0.84009910  0.18731065     0.42000
Cu34       Cu  0.73502567  0.80928886  0.14951550     0.43900
N35         N  0.77148647  0.82931458  0.14239157    -0.34200
N36         N  0.75984407  0.81635308  0.13606945    -0.28400
C37         C  0.76635930  0.80971635  0.11963237    -0.04500
C38         C  0.78288137  0.81899104  0.11539526     0.07700
C39         C  0.78570637  0.83129925  0.13015150     0.01500
H40         H  0.75943698  0.79913283  0.11124931     0.09100
H41         H  0.79697258  0.84135251  0.13160731     0.08200
N42         N  0.71040790  0.80559366  0.16459411    -0.35600
N43         N  0.70492597  0.81671869  0.17841293    -0.27800
C44         C  0.68870372  0.81006949  0.18548896    -0.03000
C45         C  0.68372759  0.79407156  0.17556787     0.05600
C46         C  0.69782443  0.79169923  0.16244066     0.03700
H47         H  0.68117240  0.81630358  0.19708188     0.08800
H48         H  0.69906006  0.78045734  0.15232946     0.07600
N49         N  0.81237987  0.25133322  0.63775998    -0.26800
N50         N  0.80068371  0.23839418  0.64411146    -0.34600
C51         C  0.78646248  0.23650812  0.63181404     0.01600
C52         C  0.78940787  0.24879502  0.61701160     0.07600
C53         C  0.80595971  0.25794248  0.62127922    -0.05500
H54         H  0.77492081  0.22679187  0.63343699     0.08300
H55         H  0.81276997  0.26874921  0.61307230     0.09500
Cu56       Cu  0.80486064  0.22355371  0.66898993     0.44200
Cu57       Cu  0.83652899  0.25983161  0.65161808     0.42000
Cu58       Cu  0.84676773  0.23615045  0.69500863     0.43900
N59         N  0.81354434  0.20996108  0.69340700    -0.34200
N60         N  0.82878707  0.21467828  0.70286343    -0.28400
C61         C  0.83106178  0.20273688  0.71732071    -0.04500
C62         C  0.81661690  0.18980779  0.71695407     0.07700
C63         C  0.80576015  0.19481189  0.70160372     0.01500
H64         H  0.84276314  0.20301946  0.72697747     0.09100
H65         H  0.79337973  0.18768915  0.69650905     0.08200
N66         N  0.86327945  0.25750680  0.68416843    -0.35600
N67         N  0.85956759  0.26624905  0.66822738    -0.27800
C68         C  0.87275136  0.27942597  0.66521763    -0.03000
C69         C  0.88538477  0.27893600  0.67999859     0.05600
C70         C  0.87892748  0.26482806  0.69171454     0.03700
H71         H  0.87298237  0.28882057  0.65329334     0.08800
H72         H  0.88514684  0.26020775  0.70475740     0.07600
N73         N  0.93182100  0.76456188  0.95488576    -0.26800
N74         N  0.93880840  0.77171588  0.93923764    -0.34600
C75         C  0.95248307  0.76039666  0.93286234     0.01600
C76         C  0.95420621  0.74532042  0.94500689     0.07600
C77         C  0.94089817  0.74845158  0.95884219    -0.05500
H78         H  0.96048570  0.76288649  0.92019696     0.08300
H79         H  0.93777674  0.73948087  0.97069792     0.09500
Cu80       Cu  0.92911240  0.79610653  0.92659127     0.44200
Cu81       Cu  0.90985948  0.77680539  0.96979206     0.42000
Cu82       Cu  0.88861524  0.81769159  0.94765242     0.43900
N83         N  0.91642906  0.82004042  0.91586894    -0.34200
N84         N  0.90135753  0.82780641  0.92338578    -0.28400
C85         C  0.89647214  0.84290742  0.91310601    -0.04500
C86         C  0.90911909  0.84474565  0.89845921     0.07700
C87         C  0.92157875  0.83001189  0.90066542     0.01500
H88         H  0.88466081  0.85194438  0.91616227     0.09100
H89         H  0.93347419  0.82670465  0.89183288     0.08200
N90         N  0.87973562  0.80647990  0.97313211    -0.35600
N91         N  0.88762492  0.79183529  0.98138840    -0.27800
C92         C  0.87916605  0.78888742  0.99804254    -0.03000
C93         C  0.86524896  0.80229357  0.00039881     0.05600
C94         C  0.86602345  0.81314803  0.98426205     0.03700
H95         H  0.88312564  0.77802233  0.00789333     0.08800
H96         H  0.85737645  0.82516549  0.98092276     0.07600
N97         N  0.05679402  0.88519611  0.71945199    -0.26800
N98         N  0.05164214  0.88170317  0.73693143    -0.34600
C99         C  0.06434528  0.87024938  0.74487610     0.01600
C100        C  0.07798631  0.86583254  0.73167287     0.07600
C101        C  0.07260246  0.87561143  0.71568444    -0.05500
H102        H  0.06358847  0.86545549  0.75927621     0.08300
H103        H  0.07946345  0.87557566  0.70213082     0.09500
Cu104      Cu  0.02678150  0.89120503  0.74892569     0.44200
Cu105      Cu  0.04261669  0.90343384  0.70171783     0.42000
Cu106      Cu  0.99783858  0.91998368  0.71924696     0.43900
N107        N  0.00059032  0.90119762  0.75708713    -0.34200
N108        N  0.99011167  0.91203427  0.74625563    -0.28400
C109        C  0.97415598  0.91628260  0.75541694    -0.04500
C110        C  0.97448403  0.90751801  0.77277029     0.07700
C111        C  0.99144864  0.89805328  0.77333979     0.01500
H112        H  0.96297706  0.92482925  0.74969453     0.09100
H113        H  0.99675368  0.88946002  0.78471157     0.08200
N114        N  0.00914188  0.92783222  0.69351137    -0.35600
N115        N  0.02586565  0.92256892  0.68752372    -0.27800
C116        C  0.02975660  0.93165254  0.67141506    -0.03000
C117        C  0.01462941  0.94304064  0.66682038     0.05600
C118        C  0.00177428  0.94003420  0.68114330     0.03700
H119        H  0.04286704  0.93040295  0.66388993     0.08800
H120        H  0.98813375  0.94646162  0.68269004     0.07600
N121        N  0.79724060  0.05550622  0.82357819    -0.26800
N122        N  0.80990432  0.04706894  0.81293501    -0.34600
C123        C  0.81519643  0.05883932  0.79915022     0.01600
C124        C  0.80536080  0.07545833  0.80110968     0.07600
C125        C  0.79406925  0.07284891  0.81671918    -0.05500
H126        H  0.82535455  0.05548817  0.78839003     0.08300
H127        H  0.78429382  0.08282887  0.82266094     0.09500
Cu128      Cu  0.81950147  0.01985320  0.81719946     0.44200
Cu129      Cu  0.78427337  0.04277987  0.84650234     0.42000
Cu130      Cu  0.79368539  0.99284197  0.85072776     0.43900
N131        N  0.82729684  0.99291131  0.82521029    -0.34200
N132        N  0.81782300  0.98305547  0.83774720    -0.28400
C133        C  0.82705751  0.96695344  0.84121656    -0.04500
C134        C  0.84307420  0.96659228  0.83025254     0.07700
C135        C  0.84274234  0.98324469  0.82021327     0.01500
H136        H  0.82265833  0.95650323  0.85134299     0.09100
H137        H  0.85330709  0.98830599  0.81054936     0.08200
N138        N  0.77263135  0.00668697  0.86527651    -0.35600
N139        N  0.77023698  0.02507204  0.86504405    -0.27800
C140        C  0.75638257  0.02954629  0.87705853    -0.03000
C141        C  0.74929240  0.01315489  0.88494864     0.05600
C142        C  0.76001153  0.99896685  0.87696373     0.03700
H143        H  0.75171425  0.04384281  0.87968747     0.08800
H144        H  0.75860977  0.98407901  0.87917630     0.07600
N145        N  0.94221602  0.90053312  0.81199266    -0.26800
N146        N  0.93355797  0.91421895  0.80288337    -0.34600
C147        C  0.94374357  0.91887728  0.78765586     0.01600
C148        C  0.95962680  0.90769817  0.78721343     0.07600
C149        C  0.95821459  0.89627824  0.80288732    -0.05500
H150        H  0.93983543  0.92962042  0.77761593     0.08300
H151        H  0.96791228  0.88538726  0.80716869     0.09500
Cu152      Cu  0.90829827  0.92605894  0.81163172     0.44200
Cu153      Cu  0.93144924  0.88761564  0.83592942     0.42000
Cu154      Cu  0.88703357  0.90536415  0.85304359     0.43900
N155        N  0.88354978  0.93584847  0.82372850    -0.34200
N156        N  0.87570990  0.92807664  0.83866363    -0.28400
C157        C  0.86002620  0.93761789  0.84304264    -0.04500
C158        C  0.85793086  0.95218244  0.83035643     0.07700
C159        C  0.87310834  0.95066341  0.81832222     0.01500
H160        H  0.85102814  0.93439577  0.85484361     0.09100
H161        H  0.87639002  0.95970737  0.80655902     0.08200
N162        N  0.90125574  0.88307786  0.86535863    -0.35600
N163        N  0.91741257  0.87649003  0.85905162    -0.27800
C164        C  0.92270110  0.86189417  0.86984745    -0.03000
C165        C  0.90927477  0.85922759  0.88364111     0.05600
C166        C  0.89590539  0.87293016  0.88038170     0.03700
H167        H  0.93538982  0.85381624  0.86777824     0.08800
H168        H  0.88312407  0.87526648  0.88823136     0.07600
N169        N  0.50916854  0.45485224  0.43094660    -0.26800
N170        N  0.51813246  0.45917991  0.41526360    -0.34600
C171        C  0.53258591  0.44723529  0.41301775     0.01600
C172        C  0.53273473  0.43479993  0.42798431     0.07600
C173        C  0.51768600  0.44007832  0.43905576    -0.05500
H174        H  0.54226671  0.44756286  0.40131510     0.08300
H175        H  0.51305008  0.43344158  0.45191753     0.09500
Cu176      Cu  0.51043431  0.48108460  0.39747643     0.44200
Cu177      Cu  0.48552616  0.46879563  0.44067851     0.42000
Cu178      Cu  0.46993107  0.50755913  0.41194982     0.43900
N179        N  0.50038274  0.50434939  0.38288543    -0.34200
N180        N  0.48538251  0.51389122  0.38818541    -0.28400
C181        C  0.48268273  0.52833586  0.37631768    -0.04500
C182        C  0.49670600  0.52792197  0.36295583     0.07700
C183        C  0.50772872  0.51258812  0.36753254     0.01500
H184        H  0.47164816  0.53867317  0.37763128     0.09100
H185        H  0.52030685  0.50796228  0.36041804     0.08200
N186        N  0.45651232  0.49914507  0.43629424    -0.35600
N187        N  0.46212534  0.48497368  0.44688899    -0.27800
C188        C  0.45013218  0.48299175  0.46134920    -0.03000
C189        C  0.43632094  0.49656601  0.45970248     0.05600
C190        C  0.44084653  0.50655821  0.44368868     0.03700
H191        H  0.45117511  0.47224744  0.47204554     0.08800
H192        H  0.43321975  0.51827072  0.43774553     0.07600
N193        N  0.60906456  0.98636064  0.98275501    -0.26800
N194        N  0.61339961  0.00246063  0.99085011    -0.34600
C195        C  0.62960982  0.00882997  0.98362194     0.01600
C196        C  0.63600777  0.99605324  0.97040129     0.07600
C197        C  0.62258056  0.98193540  0.97032591    -0.05500
H198        H  0.63609346  0.02200693  0.98750025     0.08300
H199        H  0.62253750  0.96939087  0.96176241     0.09500
Cu200      Cu  0.59706709  0.01484259  0.01145863     0.44200
Cu201      Cu  0.58421074  0.97199221  0.98820922     0.42000
Cu202      Cu  0.55121705  0.99414022  0.02024954     0.43900
N203        N  0.57886205  0.02392899  0.03221343    -0.34200
N204        N  0.56197722  0.01686538  0.03511621    -0.28400
C205        C  0.55409669  0.02575336  0.04980915    -0.04500
C206        C  0.56672405  0.03889332  0.05665189     0.07700
C207        C  0.58225886  0.03726931  0.04509693     0.01500
H208        H  0.54031554  0.02261760  0.05528680     0.09100
H209        H  0.59533155  0.04484746  0.04628207     0.08200
N210        N  0.54551609  0.96949799  0.00560448    -0.35600
N211        N  0.55771146  0.96125536  0.99428600    -0.27800
C212        C  0.55025923  0.94510746  0.98793022    -0.03000
C213        C  0.53251589  0.94307388  0.99555790     0.05600
C214        C  0.52996652  0.95881803  0.00667446     0.03700
H215        H  0.55735528  0.93539240  0.97868184     0.08800
H216        H  0.51795594  0.96194341  0.01540778     0.07600
N217        N  0.29467837  0.51803596  0.11384741    -0.26800
N218        N  0.30862258  0.52657974  0.12257821    -0.34600
C219        C  0.31537062  0.51520996  0.13607641     0.01600
C220        C  0.30521513  0.49867971  0.13580718     0.07600
C221        C  0.29221204  0.50095474  0.12154020    -0.05500
H222        H  0.32706027  0.51856542  0.14514237     0.08300
H223        H  0.28177948  0.49090545  0.11704606     0.09500
Cu224      Cu  0.31829194  0.55297884  0.11516882     0.44200
Cu225      Cu  0.27958013  0.53021391  0.09201041     0.42000
Cu226      Cu  0.29165805  0.57834423  0.07998071     0.43900
N227        N  0.32636650  0.57866333  0.10418651    -0.34200
N228        N  0.31687809  0.58785688  0.09113529    -0.28400
C229        C  0.32639191  0.60351581  0.08652344    -0.04500
C230        C  0.34252887  0.60422486  0.09730328     0.07700
C231        C  0.34202827  0.58828134  0.10834814     0.01500
H232        H  0.32186833  0.61363655  0.07611101     0.09100
H233        H  0.35243410  0.58380901  0.11848070     0.08200
N234        N  0.26840667  0.56430005  0.06934967    -0.35600
N235        N  0.26466617  0.54647741  0.07288001    -0.27800
C236        C  0.24939225  0.54137434  0.06305058    -0.03000
C237        C  0.24290677  0.55679387  0.05303456     0.05600
C238        C  0.25536614  0.57108393  0.05750170     0.03700
H239        H  0.24349118  0.52739774  0.06320464     0.08800
H240        H  0.25495394  0.58545456  0.05260625     0.07600
N241        N  0.52568076  0.64418859  0.23859744    -0.26800
N242        N  0.50777079  0.64120419  0.23479678    -0.34600
C243        C  0.50070119  0.62914960  0.24748252     0.01600
C244        C  0.51481311  0.62418247  0.25982835     0.07600
C245        C  0.53048244  0.63394855  0.25377100    -0.05500
H246        H  0.48642996  0.62401380  0.24745325     0.08300
H247        H  0.54434514  0.63360888  0.25991987     0.09500
Cu248      Cu  0.49376359  0.65248975  0.21190296     0.44200
Cu249      Cu  0.54272078  0.66220265  0.22303180     0.42000
Cu250      Cu  0.52026472  0.68442136  0.18308795     0.43900
N251        N  0.48361720  0.66375069  0.18704535    -0.34200
N252        N  0.49326512  0.67567699  0.17661104    -0.28400
C253        C  0.48310899  0.68013110  0.16133131    -0.04500
C254        C  0.46634996  0.67040049  0.16210858     0.07700
C255        C  0.46714055  0.66012760  0.17858104     0.01500
H256        H  0.48780771  0.68939361  0.15023832     0.09100
H257        H  0.45661757  0.65061287  0.18395275     0.08200
N258        N  0.54730293  0.69066216  0.19192033    -0.35600
N259        N  0.55569779  0.68243083  0.20629887    -0.27800
C260        C  0.57278288  0.69017222  0.20862476    -0.03000
C261        C  0.57517091  0.70399165  0.19512655     0.05600
C262        C  0.55874768  0.70385993  0.18478652     0.03700
H263        H  0.58244509  0.68652171  0.21973179     0.08800
H264        H  0.55520986  0.71299101  0.17317677     0.07600
N265        N  0.42542400  0.80920651  0.97486997    -0.26800
N266        N  0.43209802  0.80331321  0.99118745    -0.34600
C267        C  0.44500522  0.81561027  0.99736283     0.01600
C268        C  0.44660186  0.82996668  0.98436413     0.07600
C269        C  0.43400673  0.82542000  0.97025635    -0.05500
H270        H  0.45261956  0.81424118  0.01041601     0.08300
H271        H  0.43106870  0.83347661  0.95772576     0.09500
Cu272      Cu  0.42337096  0.77907083  0.00490707     0.44200
Cu273      Cu  0.40458234  0.79520346  0.95973918     0.42000
Cu274      Cu  0.38699955  0.75305772  0.98192653     0.43900
N275        N  0.41195061  0.75457109  0.01587091    -0.34200
N276        N  0.39848619  0.74514337  0.00731897    -0.28400
C277        C  0.39395763  0.73003521  0.01765211    -0.04500
C278        C  0.40512391  0.72990095  0.03350045     0.07700
C279        C  0.41638589  0.74565560  0.03194892     0.01500
H280        H  0.38336827  0.71987578  0.01382477     0.09100
H281        H  0.42702080  0.75029836  0.04174538     0.08200
N282        N  0.37750744  0.76283814  0.95635549    -0.35600
N283        N  0.38384048  0.77815440  0.94800226    -0.27800
C284        C  0.37486943  0.78019978  0.93146493    -0.03000
C285        C  0.36229993  0.76547779  0.92944315     0.05600
C286        C  0.36440632  0.75478227  0.94548533     0.03700
H287        H  0.37729269  0.79154458  0.92165285     0.08800
H288        H  0.35711335  0.74191287  0.94891183     0.07600
N289        N  0.38146872  0.63634512  0.10513894    -0.26800
N290        N  0.37445154  0.64336125  0.08943987    -0.34600
C291        C  0.35957012  0.63302155  0.08418514     0.01600
C292        C  0.35719307  0.61874948  0.09713324     0.07600
C293        C  0.37135001  0.62123298  0.11017699    -0.05500
H294        H  0.35110128  0.63573904  0.07186066     0.08300
H295        H  0.37391028  0.61289254  0.12262564     0.09500
Cu296      Cu  0.38523084  0.66683395  0.07604613     0.44200
Cu297      Cu  0.40398001  0.64808305  0.11946438     0.42000
Cu298      Cu  0.42393288  0.69022725  0.09897074     0.43900
N299        N  0.39779703  0.69099342  0.06581564    -0.34200
N300        N  0.41177835  0.69972937  0.07429583    -0.28400
C301        C  0.41652713  0.71497739  0.06419685    -0.04500
C302        C  0.40499682  0.71580698  0.04860364     0.07700
C303        C  0.39331238  0.70039440  0.05007738     0.01500
H304        H  0.42761407  0.72464093  0.06789095     0.09100
H305        H  0.38231868  0.69628477  0.04043806     0.08200
N306        N  0.43415623  0.67751689  0.12308067    -0.35600
N307        N  0.42672255  0.66236260  0.13080670    -0.27800
C308        C  0.43676688  0.65770634  0.14612589    -0.03000
C309        C  0.45130109  0.67043324  0.14796820     0.05600
C310        C  0.44922194  0.68277131  0.13312553     0.03700
H311        H  0.43398913  0.64564760  0.15495029     0.08800
H312        H  0.45807885  0.69461915  0.12976002     0.07600
N313        N  0.01421153  0.11063480  0.49344234    -0.26800
N314        N  0.02558712  0.10355179  0.50627921    -0.34600
C315        C  0.04026861  0.11525037  0.50843750     0.01600
C316        C  0.03794724  0.13022222  0.49622115     0.07600
C317        C  0.02133369  0.12680767  0.48695781    -0.05500
H318        H  0.05155643  0.11321089  0.51836308     0.08300
H319        H  0.01458829  0.13574236  0.47669573     0.09500
Cu320      Cu  0.01949650  0.07904935  0.52102738     0.44200
Cu321      Cu  0.98872568  0.09926475  0.48616495     0.42000
Cu322      Cu  0.97115643  0.06215232  0.51455980     0.43900
N323        N  0.00736590  0.05738017  0.53645000    -0.34200
N324        N  0.98954095  0.05249304  0.53511567    -0.28400
C325        C  0.98576519  0.03950394  0.54827105    -0.04500
C326        C  0.00207545  0.03548625  0.55814742     0.07700
C327        C  0.01548825  0.04714667  0.55011074     0.01500
H328        H  0.97203477  0.03350129  0.55045514     0.09100
H329        H  0.03015281  0.04812890  0.55380191     0.08200
N330        N  0.95692453  0.07234028  0.49115756    -0.35600
N331        N  0.96352009  0.08628728  0.48089476    -0.27800
C332        C  0.95181670  0.08960562  0.46651321    -0.03000
C333        C  0.93714657  0.07696751  0.46753924     0.05600
C334        C  0.94082748  0.06623458  0.48340447     0.03700
H335        H  0.95400033  0.10029441  0.45593874     0.08800
H336        H  0.93266927  0.05454922  0.48863819     0.07600
N337        N  0.63778551  0.30176900  0.45901778    -0.26800
N338        N  0.63145327  0.29534083  0.44279490    -0.34600
C339        C  0.61798387  0.30690829  0.43640863     0.01600
C340        C  0.61581993  0.32135321  0.44915732     0.07600
C341        C  0.62859925  0.31770490  0.46330792    -0.05500
H342        H  0.61084899  0.30534889  0.42309513     0.08300
H343        H  0.63135250  0.32625274  0.47554776     0.09500
Cu344      Cu  0.64256709  0.27225032  0.42904830     0.44200
Cu345      Cu  0.65942245  0.28921253  0.47394625     0.42000
Cu346      Cu  0.68292694  0.25054208  0.45048705     0.43900
N347        N  0.65699418  0.24997126  0.41716820    -0.34200
N348        N  0.67187623  0.24211320  0.42496230    -0.28400
C349        C  0.67790649  0.22804006  0.41392615    -0.04500
C350        C  0.66624224  0.22700881  0.39845345     0.07700
C351        C  0.65315004  0.24111830  0.40094873     0.01500
H352        H  0.68975198  0.21909488  0.41708149     0.09100
H353        H  0.64156670  0.24460976  0.39176191     0.08200
N354        N  0.69068993  0.26076984  0.47656870    -0.35600
N355        N  0.68200953  0.27469251  0.48523910    -0.27800
C356        C  0.69034247  0.27767639  0.50191109    -0.03000
C357        C  0.70499800  0.26505840  0.50380554     0.05600
C358        C  0.70479056  0.25456782  0.48745923     0.03700
H359        H  0.68598831  0.28819618  0.51195712     0.08800
H360        H  0.71424664  0.24329385  0.48370335     0.07600
N361        N  0.54489529  0.13799882  0.19627825    -0.26800
N362        N  0.56313347  0.13665747  0.19909486    -0.34600
C363        C  0.57073920  0.12625385  0.18533809     0.01600
C364        C  0.55655995  0.12034112  0.17338470     0.07600
C365        C  0.54032450  0.12800881  0.18095423    -0.05500
H366        H  0.58559048  0.12352252  0.18403011     0.08300
H367        H  0.52618977  0.12665352  0.17565618     0.09500
Cu368      Cu  0.57667339  0.14825175  0.22197663     0.44200
Cu369      Cu  0.52762600  0.15547532  0.21181333     0.42000
Cu370      Cu  0.55006488  0.18115339  0.24973158     0.43900
N371        N  0.58613589  0.15924875  0.24710840    -0.34200
N372        N  0.57657621  0.17154650  0.25719226    -0.28400
C373        C  0.58649538  0.17577011  0.27269558    -0.04500
C374        C  0.60297296  0.16549760  0.27237862     0.07700
C375        C  0.60225897  0.15514845  0.25599279     0.01500
H376        H  0.58188729  0.18535935  0.28354606     0.09100
H377        H  0.61267146  0.14535099  0.25087129     0.08200
N378        N  0.52329056  0.18699079  0.23972479    -0.35600
N379        N  0.51502665  0.17742825  0.22614408    -0.27800
C380        C  0.49787211  0.18466519  0.22305885    -0.03000
C381        C  0.49516018  0.19948809  0.23531860     0.05600
C382        C  0.51158392  0.20055705  0.24565391     0.03700
H383        H  0.48807884  0.17943630  0.21274078     0.08800
H384        H  0.51480814  0.21050110  0.25663800     0.07600
N385        N  0.80996028  0.04973160  0.35457065    -0.26800
N386        N  0.80059147  0.06221020  0.36459116    -0.34600
C387        C  0.81162809  0.06861369  0.37844525     0.01600
C388        C  0.82887540  0.05983511  0.37709709     0.07600
C389        C  0.82730788  0.04792641  0.36177982    -0.05500
H390        H  0.80734793  0.07885700  0.38880228     0.08300
H391        H  0.83797293  0.03864255  0.35626965     0.09500
Cu392      Cu  0.77352690  0.07062651  0.35873335     0.44200
Cu393      Cu  0.79822986  0.03520014  0.33217743     0.42000
Cu394      Cu  0.74905356  0.04552565  0.32254379     0.43900
N395        N  0.74805120  0.07920199  0.34799889    -0.34200
N396        N  0.73907382  0.07021860  0.33448652    -0.28400
C397        C  0.72404555  0.08043806  0.32933282    -0.04500
C398        C  0.72361579  0.09657768  0.34015663     0.07700
C399        C  0.73898925  0.09527302  0.35188083     0.01500
H400        H  0.71452013  0.07669497  0.31809469     0.09100
H401        H  0.74376017  0.10563923  0.36191979     0.08200
N402        N  0.76376012  0.02331283  0.31060292    -0.35600
N403        N  0.78183730  0.02021571  0.31329198    -0.27800
C404        C  0.78717933  0.00547692  0.30276274    -0.03000
C405        C  0.77168997  0.99873978  0.29310474     0.05600
C406        C  0.75708957  0.01041868  0.29854964     0.03700
H407        H  0.80134736  0.00009763  0.30219873     0.08800
H408        H  0.74260201  0.00958391  0.29415126     0.07600
N409        N  0.64300798  0.15764659  0.30317913    -0.26800
N410        N  0.63557379  0.17274788  0.31099923    -0.34600
C411        C  0.62022173  0.17781678  0.30128666     0.01600
C412        C  0.61796324  0.16540742  0.28655835     0.07600
C413        C  0.63266990  0.15282197  0.28813461    -0.05500
H414        H  0.61141485  0.18971614  0.30467986     0.08300
H415        H  0.63548445  0.14084462  0.27920982     0.09500
Cu416      Cu  0.64659080  0.18592618  0.33442394     0.44200
Cu417      Cu  0.66625387  0.14379506  0.31398509     0.42000
Cu418      Cu  0.68772768  0.16491292  0.35516472     0.43900
N419        N  0.65999190  0.19667669  0.35784424    -0.34200
N420        N  0.67511018  0.18905115  0.36541351    -0.28400
C421        C  0.67987892  0.19886907  0.38081249    -0.04500
C422        C  0.66712584  0.21333676  0.38301757     0.07700
C423        C  0.65474482  0.21156131  0.36818975     0.01500
H424        H  0.69151101  0.19543428  0.38995627     0.09100
H425        H  0.64256222  0.22015638  0.36534861     0.08200
N426        N  0.69627457  0.13961973  0.34356660    -0.35600
N427        N  0.68836315  0.13181442  0.32869872    -0.27800
C428        C  0.69674912  0.11524203  0.32526259    -0.03000
C429        C  0.71061307  0.11254080  0.33856842     0.05600
C430        C  0.70994385  0.12827230  0.34991700     0.03700
H431        H  0.69303025  0.10588808  0.31388513     0.08800
H432        H  0.71865935  0.13122844  0.36201741     0.07600
N433        N  0.36385032  0.30990853  0.24637160    -0.26800
N434        N  0.35840262  0.30017903  0.26121234    -0.34600
C435        C  0.37023886  0.28571783  0.26382836     0.01600
C436        C  0.38384677  0.28646038  0.25003313     0.07600
C437        C  0.37941039  0.30197610  0.23921889    -0.05500
H438        H  0.36916105  0.27556304  0.27507574     0.08300
H439        H  0.38689831  0.30708152  0.22703924     0.09500
Cu440      Cu  0.33542984  0.30726063  0.27748546     0.44200
Cu441      Cu  0.34976525  0.33344644  0.23657193     0.42000
Cu442      Cu  0.30831589  0.34770053  0.26254205     0.43900
N443        N  0.31195739  0.31698654  0.29152309    -0.34200
N444        N  0.30185459  0.33152631  0.28596946    -0.28400
C445        C  0.28755916  0.33397190  0.29804842    -0.04500
C446        C  0.28878681  0.32037743  0.31193499     0.07700
C447        C  0.30446342  0.30989094  0.30731996     0.01500
H448        H  0.27704413  0.34484622  0.29679853     0.09100
H449        H  0.31014794  0.29807745  0.31498005     0.08200
N450        N  0.31844399  0.36184918  0.23910165    -0.35600
N451        N  0.33351080  0.35659991  0.22963842    -0.27800
C452        C  0.33653271  0.36884095  0.21557149    -0.03000
C453        C  0.32275073  0.38251770  0.21622221     0.05600
C454        C  0.31151452  0.37760628  0.23131192     0.03700
H455        H  0.34800598  0.36791620  0.20568696     0.08800
H456        H  0.29940408  0.38514851  0.23647918     0.07600
N457        N  0.05577612  0.61055850  0.91480267    -0.26800
N458        N  0.06793565  0.61737047  0.92703099    -0.34600
C459        C  0.06135969  0.63372411  0.93380622     0.01600
C460        C  0.04418225  0.63723523  0.92552726     0.07600
C461        C  0.04105706  0.62228749  0.91357151    -0.05500
H462        H  0.06817135  0.64201156  0.94454049     0.08300
H463        H  0.02883041  0.61992738  0.90491304     0.09500
Cu464      Cu  0.09143930  0.60272428  0.93586351     0.44200
Cu465      Cu  0.05934204  0.58517747  0.90113754     0.42000
Cu466      Cu  0.09315613  0.55360591  0.92186688     0.43900
N467        N  0.11000722  0.58328838  0.94697471    -0.34200
N468        N  0.10993001  0.56522759  0.94273064    -0.28400
C469        C  0.12283285  0.55640062  0.95332330    -0.04500
C470        C  0.13161301  0.56955186  0.96468508     0.07700
C471        C  0.12308907  0.58645040  0.96017716     0.01500
H472        H  0.12561150  0.54148421  0.95274996     0.09100
H473        H  0.12620026  0.60011785  0.96600212     0.08200
N474        N  0.07791905  0.54738105  0.89776375    -0.35600
N475        N  0.06608970  0.55927503  0.88985759    -0.27800
C476        C  0.06003673  0.55203875  0.87352308    -0.03000
C477        C  0.06831359  0.53461947  0.87099536     0.05600
C478        C  0.07950041  0.53212248  0.88675275     0.03700
H479        H  0.05074490  0.55923802  0.86391295     0.08800
H480        H  0.08848076  0.52026906  0.88981724     0.07600
N481        N  0.17778960  0.29662451  0.44119935    -0.26800
N482        N  0.18476967  0.31224275  0.44836353    -0.34600
C483        C  0.19855398  0.31848824  0.43708242     0.01600
C484        C  0.20022521  0.30622725  0.42210137     0.07600
C485        C  0.18685029  0.29254415  0.42516393    -0.05500
H486        H  0.20662389  0.33110901  0.43949263     0.08300
H487        H  0.18395848  0.28046847  0.41642203     0.09500
Cu488      Cu  0.17482599  0.32446746  0.47291019     0.44200
Cu489      Cu  0.15626249  0.28158500  0.45343894     0.42000
Cu490      Cu  0.13397639  0.30248870  0.49403305     0.43900
N491        N  0.16184978  0.33419809  0.49716099    -0.34200
N492        N  0.14686738  0.32631777  0.50475108    -0.28400
C493        C  0.14211957  0.33586594  0.52034862    -0.04500
C494        C  0.15468491  0.35046864  0.52265518     0.07700
C495        C  0.16699011  0.34899194  0.50770324     0.01500
H496        H  0.13042186  0.33236031  0.52937362     0.09100
H497        H  0.17886402  0.35793726  0.50472690     0.08200
N498        N  0.12601952  0.27692032  0.48255259    -0.35600
N499        N  0.13451960  0.26914469  0.46800360    -0.27800
C500        C  0.12717180  0.25205897  0.46492833    -0.03000
C501        C  0.11334132  0.24893886  0.47814849     0.05600
C502        C  0.11292277  0.26499596  0.48906441     0.03700
H503        H  0.13178056  0.24249487  0.45407582     0.08800
H504        H  0.10422830  0.26752940  0.50124526     0.07600
N505        N  0.27945387  0.55108561  0.61087019    -0.26800
N506        N  0.26361784  0.54460531  0.61800372    -0.34600
C507        C  0.25717460  0.55689234  0.63078421     0.01600
C508        C  0.26953726  0.57182141  0.63169966     0.07600
C509        C  0.28351491  0.56765811  0.61890898    -0.05500
H510        H  0.24428597  0.55522085  0.63862102     0.08300
H511        H  0.29549435  0.57626624  0.61534017     0.09500
Cu512      Cu  0.25070593  0.52011770  0.60908889     0.44200
Cu513      Cu  0.29417300  0.53779668  0.58970942     0.42000
Cu514      Cu  0.27082790  0.49835409  0.56784251     0.43900
N515        N  0.23906671  0.49700627  0.59580044    -0.34200
N516        N  0.24618061  0.48933384  0.58046738    -0.28400
C517        C  0.23511863  0.47504580  0.57504698    -0.04500
C518        C  0.22037022  0.47364224  0.58759150     0.07700
C519        C  0.22332846  0.48776334  0.60057937     0.01500
H520        H  0.23771056  0.46626692  0.56291821     0.09100
H521        H  0.21463709  0.49117100  0.61256430     0.08200
N522        N  0.29657373  0.50877405  0.55910773    -0.35600
N523        N  0.30519416  0.52296929  0.56734911    -0.27800
C524        C  0.32172045  0.52594815  0.55880162    -0.03000
C525        C  0.32361313  0.51303413  0.54443008     0.05600
C526        C  0.30739503  0.50236443  0.54502919     0.03700
H527        H  0.33170090  0.53661158  0.56288320     0.08800
H528        H  0.30374207  0.49078423  0.53594511     0.07600
N529        N  0.01882478  0.38297107  0.71126010    -0.26800
N530        N  0.02699949  0.37471525  0.69677986    -0.34600
C531        C  0.01578925  0.36091616  0.69044692     0.01600
C532        C  0.99976809  0.36057104  0.70139033     0.07600
C533        C  0.00216097  0.37473462  0.71444442    -0.05500
H534        H  0.01874856  0.35224865  0.67832857     0.08300
H535        H  0.99236309  0.37896645  0.72524004     0.09500
Cu536      Cu  0.05215212  0.38375268  0.68515168     0.44200
Cu537      Cu  0.03038369  0.40540741  0.72572095     0.42000
Cu538      Cu  0.07400629  0.42389125  0.70723136     0.43900
N539        N  0.07569973  0.39718359  0.67443317    -0.34200
N540        N  0.08357391  0.41198533  0.68237746    -0.28400
C541        C  0.09793710  0.41781853  0.67158861    -0.04500
C542        C  0.09914499  0.40612876  0.65611185     0.07700
C543        C  0.08485057  0.39320301  0.65839628     0.01500
H544        H  0.10669171  0.42980649  0.67469138     0.09100
H545        H  0.08114517  0.38189958  0.64894057     0.08200
N546        N  0.06151610  0.43332533  0.73184260    -0.35600
N547        N  0.04552704  0.42669794  0.73849196    -0.27800
C548        C  0.04141726  0.43555901  0.75465347    -0.03000
C549        C  0.05551450  0.44837017  0.75839799     0.05600
C550        C  0.06800947  0.44655949  0.74362261     0.03700
H551        H  0.02909092  0.43282774  0.76308400     0.08800
H552        H  0.08101425  0.45412825  0.74170603     0.07600
N553        N  0.12759420  0.40178676  0.61375224    -0.26800
N554        N  0.13522293  0.41688405  0.62139189    -0.34600
C555        C  0.12632980  0.42073560  0.63761580     0.01600
C556        C  0.11244141  0.40744583  0.64030729     0.07600
C557        C  0.11364139  0.39566781  0.62490447    -0.05500
H558        H  0.12974975  0.43237635  0.64677283     0.08300
H559        H  0.10504616  0.38351576  0.62200675     0.09500
Cu560      Cu  0.15749673  0.43150695  0.60952227     0.44200
Cu561      Cu  0.13653618  0.38996295  0.58859189     0.42000
Cu562      Cu  0.17523188  0.41320397  0.56549475     0.43900
N563        N  0.18015233  0.44298817  0.59518583    -0.34200
N564        N  0.18659617  0.43625635  0.57912767    -0.28400
C565        C  0.20170303  0.44624877  0.57387058    -0.04500
C566        C  0.20493900  0.45992387  0.58725342     0.07700
C567        C  0.19098991  0.45748818  0.60054473     0.01500
H568        H  0.20988427  0.44354190  0.56136065     0.09100
H569        H  0.18905786  0.46541736  0.61336138     0.08200
N570        N  0.16246290  0.38920119  0.55514108    -0.35600
N571        N  0.14828666  0.38067343  0.56352694    -0.27800
C572        C  0.14332233  0.36558070  0.55330264    -0.03000
C573        C  0.15496598  0.36457847  0.53777543     0.05600
C574        C  0.16693119  0.37975625  0.53941484     0.03700
H575        H  0.13210669  0.35604544  0.55694213     0.08800
H576        H  0.17806384  0.38370255  0.52986839     0.07600
C577        C  0.06293417  0.49242486  0.78785338    -0.05000
C578        C  0.06095474  0.48528098  0.80620793     0.09200
C579        C  0.05706924  0.46607667  0.80893723    -0.02300
C580        C  0.05537410  0.45396510  0.79336563    -0.00600
C581        C  0.05714895  0.46110781  0.77489010    -0.04200
C582        C  0.06074313  0.48046597  0.77223127     0.02800
C583        C  0.06287374  0.49804155  0.82275216     0.09600
C584        C  0.05497396  0.45880483  0.82785578     0.35500
C585        C  0.06146740  0.48829339  0.75343417     0.39000
C586        C  0.04688516  0.50667970  0.83051079    -0.04600
C587        C  0.04858070  0.51841189  0.84637580     0.02600
C588        C  0.06644118  0.52196397  0.85437038    -0.04200
C589        C  0.08251091  0.51352067  0.84621520    -0.00400
C590        C  0.08064808  0.50138589  0.83067803    -0.03000
C591        C  0.02864435  0.50338516  0.82211955     0.36300
C592        C  0.10112306  0.51784414  0.85317780     0.39900
C593        C  0.03177156  0.52629774  0.85470471     0.39000
C594        C  0.09704141  0.49226929  0.82277207     0.36000
C595        C  0.06728924  0.51212102  0.78509602     0.36600
C596        C  0.05249054  0.43405195  0.79648198     0.39900
N597        N  0.01829830  0.53255678  0.86125497    -0.38200
N598        N  0.01413463  0.50074570  0.81535291    -0.39800
N599        N  0.11601592  0.52127011  0.85863472    -0.37500
N600        N  0.11007960  0.48492394  0.81647861    -0.39900
N601        N  0.05327609  0.45308917  0.84297500    -0.39700
N602        N  0.05023921  0.41816695  0.79903639    -0.37300
N603        N  0.06194082  0.49456596  0.73844624    -0.38400
N604        N  0.07087920  0.52781254  0.78292918    -0.40000
C605        C  0.24562258  0.30930225  0.39419748    -0.05000
C606        C  0.23877197  0.31040863  0.37565756     0.09200
C607        C  0.21929992  0.30969823  0.37230006    -0.02300
C608        C  0.20668186  0.30810787  0.38745459    -0.00600
C609        C  0.21349217  0.30749243  0.40609470    -0.04200
C610        C  0.23302424  0.30802812  0.40940009     0.02800
C611        C  0.25205028  0.31282099  0.35961306     0.09600
C612        C  0.21228693  0.31083962  0.35320798     0.35500
C613        C  0.24021137  0.30678144  0.42841497     0.39000
C614        C  0.25735944  0.29724415  0.34864642    -0.04600
C615        C  0.26916160  0.29969952  0.33294366     0.02600
C616        C  0.27619184  0.31774687  0.32842530    -0.04200
C617        C  0.27121353  0.33325304  0.33982437    -0.00400
C618        C  0.25901607  0.33080162  0.35520900    -0.03000
C619        C  0.25066233  0.27866689  0.35361476     0.36300
C620        C  0.27909139  0.35167204  0.33620730     0.39900
C621        C  0.27341340  0.28369947  0.32108941     0.39000
C622        C  0.25356989  0.34679779  0.36658116     0.36000
C623        C  0.26567668  0.30929346  0.39755573     0.36600
C624        C  0.18666962  0.30770826  0.38384136     0.39900
N625        N  0.27673245  0.27090150  0.31164994    -0.38200
N626        N  0.24536129  0.26385828  0.35766430    -0.39800
N627        N  0.28537431  0.36638229  0.33339723    -0.37500
N628        N  0.24919752  0.35951218  0.37569490    -0.39900
N629        N  0.20675603  0.31174178  0.33795692    -0.39700
N630        N  0.17071307  0.30736526  0.38091977    -0.37300
N631        N  0.24593220  0.30579773  0.44359090    -0.38400
N632        N  0.28168474  0.30921693  0.40018973    -0.40000
C633        C  0.45468407  0.23256493  0.22358097    -0.05000
C634        C  0.44695318  0.23570058  0.24152294     0.09200
C635        C  0.45467865  0.22663040  0.25731912    -0.02300
C636        C  0.47013337  0.21446348  0.25521455    -0.00600
C637        C  0.47820088  0.21153831  0.23729083    -0.04200
C638        C  0.47019669  0.22045484  0.22141488     0.02800
C639        C  0.43069267  0.24873518  0.24378221     0.09600
C640        C  0.44680004  0.23001525  0.27578884     0.35500
C641        C  0.47812284  0.21763088  0.20287336     0.39000
C642        C  0.41220717  0.24180523  0.24273203    -0.04600
C643        C  0.39687115  0.25416150  0.24463277     0.02600
C644        C  0.39997204  0.27351956  0.24764611    -0.04200
C645        C  0.41851051  0.28043122  0.24864903    -0.00400
C646        C  0.43381986  0.26804686  0.24676142    -0.03000
C647        C  0.40902388  0.22194121  0.23963260     0.36300
C648        C  0.42186886  0.30020264  0.25214086     0.39900
C649        C  0.37790479  0.24703526  0.24287597     0.39000
C650        C  0.45285065  0.27509428  0.24800778     0.36000
C651        C  0.44682465  0.24215875  0.20741286     0.36600
C652        C  0.47723300  0.20439804  0.27144289     0.39900
N653        N  0.36277262  0.24137366  0.24140470    -0.38200
N654        N  0.40651167  0.20608523  0.23717472    -0.39800
N655        N  0.42455469  0.31597467  0.25493457    -0.37500
N656        N  0.46806002  0.28064338  0.24901778    -0.39900
N657        N  0.44056126  0.23278694  0.29053034    -0.39700
N658        N  0.48284758  0.19628993  0.28436087    -0.37300
N659        N  0.48429756  0.21538040  0.18801331    -0.38400
N660        N  0.44053634  0.24992976  0.19460021    -0.40000
C661        C  0.87028251  0.04958352  0.40941957    -0.05000
C662        C  0.87566093  0.06785579  0.41472310     0.09200
C663        C  0.86614417  0.08350578  0.40726205    -0.02300
C664        C  0.85129776  0.08091043  0.39446064    -0.00600
C665        C  0.84532796  0.06256319  0.38966876    -0.04200
C666        C  0.85488848  0.04689536  0.39730279     0.02800
C667        C  0.89140574  0.07058457  0.42826297     0.09600
C668        C  0.87166721  0.10229444  0.41281997     0.35500
C669        C  0.84843118  0.02797749  0.39347902     0.39000
C670        C  0.90990767  0.07238555  0.42161566    -0.04600
C671        C  0.92487370  0.07438773  0.43438876     0.02600
C672        C  0.92136365  0.07487953  0.45398636    -0.04200
C673        C  0.90268143  0.07346040  0.46054347    -0.00400
C674        C  0.88779952  0.07114501  0.44771289    -0.03000
C675        C  0.91348936  0.07204222  0.40155756     0.36300
C676        C  0.89859721  0.07511455  0.48042821     0.39900
C677        C  0.94389145  0.07533364  0.42722914     0.39000
C678        C  0.86869519  0.06936494  0.45446881     0.36000
C679        C  0.88068033  0.03355029  0.41646562     0.36600
C680        C  0.84265083  0.09718515  0.38577478     0.39900
N681        N  0.95902174  0.07612694  0.42141156    -0.38200
N682        N  0.91627068  0.07179425  0.38554922    -0.39800
N683        N  0.89528594  0.07650632  0.49627680    -0.37500
N684        N  0.85343890  0.06791059  0.45979967    -0.39900
N685        N  0.87603173  0.11727091  0.41732873    -0.39700
N686        N  0.83583126  0.11018152  0.37879712    -0.37300
N687        N  0.84325322  0.01286609  0.39055595    -0.38400
N688        N  0.88911514  0.02081032  0.42198610    -0.40000
C689        C  0.07188626  0.21579384  0.48357428    -0.05000
C690        C  0.08107339  0.19849172  0.48650022     0.09200
C691        C  0.10082086  0.19771502  0.48657698    -0.02300
C692        C  0.11139324  0.21418150  0.48381357    -0.00600
C693        C  0.10223544  0.23155151  0.48088814    -0.04200
C694        C  0.08243943  0.23227596  0.48066119     0.02800
C695        C  0.07000811  0.18089602  0.48911486     0.09600
C696        C  0.11021715  0.17988973  0.48956391     0.35500
C697        C  0.07293112  0.24983163  0.47662851     0.39000
C698        C  0.06739404  0.16855928  0.47385685    -0.04600
C699        C  0.05747761  0.15165574  0.47638520     0.02600
C700        C  0.04976513  0.14718800  0.49410302    -0.04200
C701        C  0.05238478  0.15955386  0.50938107    -0.00400
C702        C  0.06266770  0.17627869  0.50692394    -0.03000
C703        C  0.07494385  0.17331372  0.45554544     0.36300
C704        C  0.04392541  0.15544033  0.52744172     0.39900
C705        C  0.05564192  0.13860598  0.46085897     0.39000
C706        C  0.06578686  0.18874712  0.52270750     0.36000
C707        C  0.05156914  0.21656771  0.48337867     0.36600
C708        C  0.13169964  0.21324436  0.48443703     0.39900
N709        N  0.05427215  0.12813258  0.44851938    -0.38200
N710        N  0.08098526  0.17714290  0.44095679    -0.39800
N711        N  0.03710300  0.15219088  0.54182542    -0.37500
N712        N  0.06834063  0.19869320  0.53529087    -0.39900
N713        N  0.11761489  0.16561641  0.49189921    -0.39700
N714        N  0.14789672  0.21243036  0.48492537    -0.37300
N715        N  0.06539265  0.26382940  0.47327823    -0.38400
N716        N  0.03535816  0.21721624  0.48326859    -0.40000
C717        C  0.21116695  0.56961293  0.01158536    -0.05000
C718        C  0.19427236  0.56059149  0.01651294     0.09200
C719        C  0.19330502  0.55017452  0.03332644    -0.02300
C720        C  0.20903396  0.54903743  0.04533556    -0.00600
C721        C  0.22616249  0.55788540  0.04034782    -0.04200
C722        C  0.22712710  0.56795663  0.02317811     0.02800
C723        C  0.17758224  0.56196674  0.00376384     0.09600
C724        C  0.17603544  0.54060421  0.03825646     0.35500
C725        C  0.24469032  0.57604456  0.01686150     0.39000
C726        C  0.17748411  0.55228635  0.98648629    -0.04600
C727        C  0.16266357  0.55491473  0.97363028     0.02600
C728        C  0.14717634  0.56643842  0.97839867    -0.04200
C729        C  0.14687333  0.57533190  0.99620678    -0.00400
C730        C  0.16222368  0.57348524  0.00858580    -0.03000
C731        C  0.19280740  0.53969195  0.98188685     0.36300
C732        C  0.13059168  0.58601264  0.00214093     0.39900
C733        C  0.16400556  0.54650026  0.95513362     0.39000
C734        C  0.16236704  0.58369181  0.02621305     0.36000
C735        C  0.21207240  0.58070302  0.99449746     0.36600
C736        C  0.20720034  0.53919233  0.06307367     0.39900
N737        N  0.16519704  0.53983802  0.94036155    -0.38200
N738        N  0.20502132  0.52962523  0.97826728    -0.39800
N739        N  0.11761180  0.59449812  0.00695808    -0.37500
N740        N  0.16250161  0.59183314  0.04027049    -0.39900
N741        N  0.16223422  0.53302632  0.04218430    -0.39700
N742        N  0.20561630  0.53126762  0.07717848    -0.37300
N743        N  0.25864539  0.58251102  0.01167961    -0.38400
N744        N  0.21271917  0.58951608  0.98085615    -0.40000
C745        C  0.30138058  0.41966628  0.18411345    -0.05000
C746        C  0.31654319  0.43214882  0.18180506     0.09200
C747        C  0.33391389  0.42812725  0.19036856    -0.02300
C748        C  0.33611517  0.41170865  0.20126198    -0.00600
C749        C  0.32080326  0.39934711  0.20394077    -0.04200
C750        C  0.30347298  0.40333652  0.19513021     0.02800
C751        C  0.31420080  0.44942216  0.17005606     0.09600
C752        C  0.34948641  0.44100586  0.18804955     0.35500
C753        C  0.28794514  0.39030007  0.19677277     0.39000
C754        C  0.31019990  0.46683573  0.17859328    -0.04600
C755        C  0.30746207  0.48300126  0.16744240     0.02600
C756        C  0.30831611  0.48174340  0.14763596    -0.04200
C757        C  0.31228901  0.46425320  0.13913588    -0.00400
C758        C  0.31543830  0.44821866  0.15032817    -0.03000
C759        C  0.30859897  0.46798905  0.19886649     0.36300
C760        C  0.31356309  0.46278812  0.11886050     0.39900
C761        C  0.30316004  0.50078567  0.17637153     0.39000
C762        C  0.32006649  0.43042454  0.14158466     0.36000
C763        C  0.28359417  0.42369605  0.17508473     0.36600
C764        C  0.35407364  0.40782163  0.21000220     0.39900
N765        N  0.29974036  0.51495978  0.18353334    -0.38200
N766        N  0.30729332  0.46883629  0.21504245    -0.39800
N767        N  0.31452183  0.46160929  0.10268136    -0.37500
N768        N  0.32380853  0.41621638  0.13466104    -0.39900
N769        N  0.36188278  0.45132650  0.18627332    -0.39700
N770        N  0.36844820  0.40467478  0.21685815    -0.37300
N771        N  0.27555428  0.37989256  0.19800048    -0.38400
N772        N  0.26945744  0.42696633  0.16780978    -0.40000
C773        C  0.51348626  0.89307067  0.99774175    -0.05000
C774        C  0.49527853  0.89540411  0.99036502     0.09200
C775        C  0.48924113  0.91341763  0.98473307    -0.02300
C776        C  0.50130368  0.92904486  0.98658431    -0.00600
C777        C  0.51969119  0.92666902  0.99364068    -0.04200
C778        C  0.52576016  0.90855300  0.99907437     0.02800
C779        C  0.48244716  0.87881802  0.98859999     0.09600
C780        C  0.47060051  0.91579168  0.97695716     0.35500
C781        C  0.54450889  0.90586704  0.00649481     0.39000
C782        C  0.46970524  0.87451769  0.00312404    -0.04600
C783        C  0.45792282  0.85865929  0.00169150     0.02600
C784        C  0.45880642  0.84691430  0.98568872    -0.04200
C785        C  0.47155372  0.85130172  0.97111382    -0.00400
C786        C  0.48329038  0.86720885  0.97256868    -0.03000
C787        C  0.46879301  0.88644236  0.01959807     0.36300
C788        C  0.47316296  0.83905148  0.95493302     0.39900
C789        C  0.44456128  0.85472738  0.01653669     0.39000
C790        C  0.49638900  0.87161088  0.95762824     0.36000
C791        C  0.51943270  0.87473773  0.00431490     0.36600
C792        C  0.49492641  0.94748338  0.98075880     0.39900
N793        N  0.43390024  0.85157852  0.02837653    -0.38200
N794        N  0.46807632  0.89597508  0.03273068    -0.39800
N795        N  0.47450078  0.82924717  0.94204877    -0.37500
N796        N  0.50685886  0.87515832  0.94573206    -0.39900
N797        N  0.45572605  0.91760773  0.97072522    -0.39700
N798        N  0.48979724  0.96218667  0.97611568    -0.37300
N799        N  0.55950135  0.90372939  0.01233042    -0.38400
N800        N  0.52410051  0.86013176  0.00968915    -0.40000
C801        C  0.57342570  0.08306780  0.13853217    -0.05000
C802        C  0.56177314  0.08662607  0.12293313     0.09200
C803        C  0.54871378  0.10147214  0.12368142    -0.02300
C804        C  0.54744794  0.11286114  0.13982241    -0.00600
C805        C  0.55846511  0.10879175  0.15592601    -0.04200
C806        C  0.57138636  0.09364056  0.15514998     0.02800
C807        C  0.56292354  0.07441822  0.10584176     0.09600
C808        C  0.53647510  0.10499259  0.10777293     0.35500
C809        C  0.58214315  0.08822763  0.17157850     0.39000
C810        C  0.55637989  0.05574136  0.10656435    -0.04600
C811        C  0.55762874  0.04409793  0.09059792     0.02600
C812        C  0.56479791  0.05126736  0.07347067    -0.04200
C813        C  0.57076238  0.07022683  0.07266804    -0.00400
C814        C  0.57028625  0.08155903  0.08889610    -0.03000
C815        C  0.54840536  0.04847438  0.12386006     0.36300
C816        C  0.57672679  0.07843026  0.05499804     0.39900
C817        C  0.55212486  0.02456429  0.09218658     0.39000
C818        C  0.57750189  0.10059404  0.08820919     0.36000
C819        C  0.58757376  0.06844696  0.13744903     0.36600
C820        C  0.53523356  0.12914786  0.13935171     0.39900
N821        N  0.54769704  0.00899988  0.09359536    -0.38200
N822        N  0.54213820  0.04271527  0.13770082    -0.39800
N823        N  0.58139716  0.08506591  0.04091684    -0.37500
N824        N  0.58322484  0.11578255  0.08768316    -0.39900
N825        N  0.52677698  0.10780855  0.09505112    -0.39700
N826        N  0.52545925  0.14211363  0.13880635    -0.37300
N827        N  0.59077961  0.08377673  0.18460417    -0.38400
N828        N  0.59886515  0.05680758  0.13656974    -0.44800
C829        C  0.40616993  0.50525230  0.50299299    -0.05000
C830        C  0.38801537  0.50495133  0.49516823     0.09200
C831        C  0.38568593  0.50207330  0.47573613    -0.02300
C832        C  0.40146838  0.49944331  0.46412140    -0.00600
C833        C  0.41970068  0.49938235  0.47196134    -0.04200
C834        C  0.42197226  0.50221247  0.49148431     0.02800
C835        C  0.37125352  0.50704318  0.50754890     0.09600
C836        C  0.36697120  0.50160714  0.46777565     0.35500
C837        C  0.44056578  0.50239602  0.49972790     0.39000
C838        C  0.36278909  0.52475541  0.50997036    -0.04600
C839        C  0.34701419  0.52667408  0.52175161     0.02600
C840        C  0.33982806  0.51089803  0.53147325    -0.04200
C841        C  0.34837615  0.49314245  0.52896211    -0.00400
C842        C  0.36388268  0.49121591  0.51684948    -0.03000
C843        C  0.37034422  0.54098640  0.50027150     0.36300
C844        C  0.34176957  0.47693809  0.53937698     0.39900
C845        C  0.33786830  0.54479967  0.52335826     0.39000
C846        C  0.37230897  0.47291498  0.51386758     0.36000
C847        C  0.40852522  0.50889947  0.52289377     0.36600
C848        C  0.39882739  0.49614972  0.44419446     0.39900
N849        N  0.33055748  0.55925502  0.52459506    -0.38200
N850        N  0.37638952  0.55392068  0.49252472    -0.39800
N851        N  0.33657491  0.46399271  0.54770692    -0.37500
N852        N  0.37903010  0.45833872  0.51137607    -0.39900
N853        N  0.35202003  0.50122426  0.46148181    -0.39700
N854        N  0.39669973  0.49355090  0.42829628    -0.37300
N855        N  0.45537759  0.50247133  0.50635965    -0.38400
N856        N  0.41034292  0.51192192  0.53875454    -0.40000
C857        C  0.56600918  0.40043358  0.45207132    -0.05000
C858        C  0.56891015  0.38705616  0.43775672     0.09200
C859        C  0.56038471  0.38963062  0.42005953    -0.02300
C860        C  0.54861994  0.40522323  0.41682375    -0.00600
C861        C  0.54564031  0.41865299  0.43115515    -0.04200
C862        C  0.55465737  0.41631572  0.44870904     0.02800
C863        C  0.58097821  0.37020365  0.44127281     0.09600
C864        C  0.56369132  0.37612069  0.40517900     0.35500
C865        C  0.55282117  0.43055489  0.46314890     0.39000
C866        C  0.57272534  0.35234411  0.44367209    -0.04600
C867        C  0.58411593  0.33636651  0.44630814     0.02600
C868        C  0.60381431  0.33820619  0.44691786    -0.04200
C869        C  0.61206065  0.35610062  0.44475532    -0.00400
C870        C  0.60067861  0.37202680  0.44182070    -0.03000
C871        C  0.55247987  0.35044533  0.44340708     0.36300
C872        C  0.63230648  0.35803608  0.44479749     0.39900
C873        C  0.57554710  0.31804895  0.44863263     0.39000
C874        C  0.60923671  0.39027377  0.43897985     0.36000
C875        C  0.57462748  0.39773761  0.47033161     0.36600
C876        C  0.53905199  0.40697675  0.39893446     0.39900
N877        N  0.56871400  0.30343228  0.45046399    -0.38200
N878        N  0.53632728  0.34896171  0.44313283    -0.39800
N879        N  0.64845939  0.35954684  0.44479670    -0.37500
N880        N  0.61604065  0.40484568  0.43673886    -0.39900
N881        N  0.56632571  0.36529896  0.39335500    -0.39700
N882        N  0.53141120  0.40831930  0.38466008    -0.37300
N883        N  0.55148184  0.44194050  0.47465848    -0.38400
N884        N  0.58153398  0.39554599  0.48487414    -0.40000
C885        C  0.51806281  0.56808156  0.33496229    -0.05000
C886        C  0.50600279  0.56883953  0.31926489     0.09200
C887        C  0.49094344  0.55606352  0.31788665    -0.02300
C888        C  0.48770525  0.54288448  0.33232540    -0.00600
C889        C  0.49997955  0.54188673  0.34784738    -0.04200
C890        C  0.51518221  0.55451024  0.34911649     0.02800
C891        C  0.50884125  0.58341890  0.30436501     0.09600
C892        C  0.47889339  0.55642363  0.30148631     0.35500
C893        C  0.52745501  0.55396965  0.36534801     0.39000
C894        C  0.52252627  0.58081312  0.29029374    -0.04600
C895        C  0.52485146  0.59435996  0.27599785     0.02600
C896        C  0.51337185  0.61055036  0.27560468    -0.04200
C897        C  0.49985900  0.61325091  0.28988122    -0.00400
C898        C  0.49760073  0.59972553  0.30418275    -0.03000
C899        C  0.53386434  0.56390654  0.29028360     0.36300
C900        C  0.48852757  0.63016756  0.29011994     0.39900
C901        C  0.53855517  0.59122234  0.26128163     0.39000
C902        C  0.48358789  0.60247729  0.31868990     0.36000
C903        C  0.53324668  0.58149578  0.33666494     0.36600
C904        C  0.47173031  0.53035092  0.33121151     0.39900
N905        N  0.54948715  0.58871135  0.24953761    -0.38200
N906        N  0.54286560  0.55038577  0.29028407    -0.39800
N907        N  0.47951682  0.64368136  0.29035116    -0.37500
N908        N  0.47236787  0.60458718  0.33023733    -0.39900
N909        N  0.46937237  0.55670846  0.28833213    -0.39700
N910        N  0.45890187  0.52044978  0.33038156    -0.37300
N911        N  0.53718378  0.55353428  0.37834551    -0.38400
N912        N  0.54533538  0.59223426  0.33802087    -0.40000
C913        C  0.68616315  0.00680235  0.95461518    -0.05000
C914        C  0.68532472  0.00255230  0.93528162     0.09200
C915        C  0.66850446  0.99550731  0.92759511    -0.02300
C916        C  0.65236939  0.99359257  0.93891793    -0.00600
C917        C  0.65315444  0.99771785  0.95837872    -0.04200
C918        C  0.67035765  0.00390036  0.96620517     0.02800
C919        C  0.70206687  0.00571470  0.92287811     0.09600
C920        C  0.66782216  0.99024864  0.90791806     0.35500
C921        C  0.67213698  0.00667341  0.98630608     0.39000
C922        C  0.71791000  0.99394634  0.92425067    -0.04600
C923        C  0.73362839  0.99694332  0.91256727     0.02600
C924        C  0.73319260  0.01096866  0.89837683    -0.04200
C925        C  0.71702559  0.02252865  0.89686965    -0.00400
C926        C  0.70191046  0.02030909  0.90948215    -0.03000
C927        C  0.71792109  0.97852624  0.93758319     0.36300
C928        C  0.71526126  0.03614122  0.88181957     0.39900
C929        C  0.75038443  0.98582702  0.91572985     0.39000
C930        C  0.68604661  0.03305921  0.90864125     0.36000
C931        C  0.70329988  0.01437272  0.96255274     0.36600
C932        C  0.63481706  0.98818910  0.93018270     0.39900
N933        N  0.76368669  0.97689492  0.91837891    -0.38200
N934        N  0.71789929  0.96622184  0.94820124    -0.39800
N935        N  0.71365651  0.04700050  0.86982793    -0.37500
N936        N  0.67340731  0.04323306  0.90800961    -0.39900
N937        N  0.66733614  0.98605559  0.89222812    -0.39700
N938        N  0.62084860  0.98393527  0.92310105    -0.37300
N939        N  0.67367100  0.00880533  0.00234363    -0.38400
N940        N  0.71698946  0.02039897  0.96884244    -0.40000
C941        C  0.00308423  0.98687591  0.63787911    -0.05000
C942        C  0.01008906  0.98192353  0.62001945     0.09200
C943        C  0.01844577  0.96412941  0.61746152    -0.02300
C944        C  0.01940202  0.95123754  0.63251338    -0.00600
C945        C  0.01299446  0.95640521  0.65064588    -0.04200
C946        C  0.00506293  0.97449457  0.65322427     0.02800
C947        C  0.00846966  0.99544440  0.60388469     0.09600
C948        C  0.02602627  0.95904661  0.59924316     0.35500
C949        C  0.99952411  0.98087584  0.67175773     0.39000
C950        C  0.01888013  0.01228922  0.60384159    -0.04600
C951        C  0.01647573  0.02556244  0.58928593     0.02600
C952        C  0.00453152  0.02158057  0.57383364    -0.04200
C953        C  0.99476162  0.00420818  0.57359166    -0.00400
C954        C  0.99622633  0.99160113  0.58882116    -0.03000
C955        C  0.03205968  0.01600647  0.61892405     0.36300
C956        C  0.98362454  0.99874812  0.55745260     0.39900
C957        C  0.02573604  0.04361129  0.59089189     0.39000
C958        C  0.98492899  0.97465773  0.58908151     0.36000
C959        C  0.99365164  0.00475648  0.64044634     0.36600
C960        C  0.02628842  0.93240243  0.62897235     0.39900
N961        N  0.03315697  0.05797876  0.59237985    -0.38200
N962        N  0.04252535  0.01894653  0.63098533    -0.39800
N963        N  0.97471054  0.99424472  0.54464515    -0.37500
N964        N  0.97595695  0.96113089  0.58929249    -0.39900
N965        N  0.03197983  0.95498514  0.58468217    -0.39700
N966        N  0.03171683  0.91737717  0.62601360    -0.37300
N967        N  0.99509556  0.98608511  0.68649907    -0.38400
N968        N  0.98614060  0.01901415  0.64248647    -0.40000
C969        C  0.98039329  0.70363524  0.92395963    -0.05000
C970        C  0.99229100  0.69849712  0.93889830     0.09200
C971        C  0.99139374  0.70833587  0.95603996    -0.02300
C972        C  0.97880607  0.72349087  0.95816876    -0.00600
C973        C  0.96709083  0.72895645  0.94307013    -0.04200
C974        C  0.96789082  0.71883820  0.92597385     0.02800
C975        C  0.00598136  0.68281371  0.93636612     0.09600
C976        C  0.00358801  0.70289877  0.97141169     0.35500
C977        C  0.95552723  0.72368232  0.91053817     0.39000
C978        C  0.02392238  0.68649075  0.92888158    -0.04600
C979        C  0.03649767  0.67159721  0.92547520     0.02600
C980        C  0.03119791  0.65295849  0.92962676    -0.04200
C981        C  0.01337053  0.64933903  0.93749158    -0.00400
C982        C  0.00077196  0.66423770  0.94078091    -0.03000
C983        C  0.02929049  0.70561916  0.92445167     0.36300
C984        C  0.00812960  0.63033017  0.94257651     0.39900
C985        C  0.05461578  0.67538362  0.91703716     0.39000
C986        C  0.98235828  0.66049421  0.94855721     0.36000
C987        C  0.98100690  0.69313109  0.90651555     0.36600
C988        C  0.97844887  0.73382652  0.97570327     0.39900
N989        N  0.06904376  0.67838163  0.91023785    -0.38200
N990        N  0.03352866  0.72089951  0.92093771    -0.39800
N991        N  0.00398518  0.61516984  0.94668344    -0.37500
N992        N  0.96765042  0.65753807  0.95474229    -0.39900
N993        N  0.01334167  0.69850539  0.98363589    -0.39700
N994        N  0.97819736  0.74203149  0.98972294    -0.37300
N995        N  0.94571509  0.72751863  0.89817364    -0.38400
N996        N  0.98151577  0.68466602  0.89265994    -0.40000
C997        C  0.82571944  0.11728153  0.77466112    -0.05000
C998        C  0.80967884  0.12446338  0.76556093     0.09200
C999        C  0.79217275  0.11562947  0.76819907    -0.02300
C1000       C  0.79070338  0.09967386  0.77987967    -0.00600
C1001       C  0.80677246  0.09243391  0.78899752    -0.04200
C1002       C  0.82430070  0.10130479  0.78629253     0.02800
C1003       C  0.81126989  0.14130082  0.75305266     0.09600
C1004       C  0.77568650  0.12297461  0.75879556     0.35500
C1005       C  0.84085771  0.09426677  0.79580807     0.39000
C1006       C  0.81249777  0.13902600  0.73341323    -0.04600
C1007       C  0.81385974  0.15487001  0.72158588     0.02600
C1008       C  0.81442407  0.17312886  0.72936665    -0.04200
C1009       C  0.81354265  0.17534501  0.74908760    -0.00400
C1010       C  0.81179264  0.15949016  0.76085740    -0.03000
C1011       C  0.81286177  0.12029692  0.72544132     0.36300
C1012       C  0.81412447  0.19395919  0.75731026     0.39900
C1013       C  0.81544143  0.15227951  0.70144433     0.39000
C1014       C  0.81058896  0.16182677  0.78105519     0.36000
C1015       C  0.84370731  0.12639275  0.77201744     0.36600
C1016       C  0.77276498  0.09031767  0.78192771     0.39900
N1017       N  0.81669846  0.15021455  0.68537459    -0.38200
N1018       N  0.81326227  0.10534116  0.71912009    -0.39800
N1019       N  0.81464838  0.20879232  0.76390779    -0.37500
N1020       N  0.80966558  0.16361933  0.79717917    -0.39900
N1021       N  0.76256976  0.12884988  0.75124117    -0.39700
N1022       N  0.75845511  0.08283307  0.78350187    -0.37300
N1023       N  0.85406915  0.08863534  0.80338315    -0.38400
N1024       N  0.85802514  0.13373165  0.76992971    -0.40000
C1025       C  0.93144493  0.30484670  0.67138241    -0.05000
C1026       C  0.93408345  0.31401286  0.68873613     0.09200
C1027       C  0.92073569  0.31176165  0.70316474    -0.02300
C1028       C  0.90473142  0.30052069  0.70024624    -0.00600
C1029       C  0.90210031  0.29113780  0.68292342    -0.04200
C1030       C  0.91560191  0.29332856  0.66851460     0.02800
C1031       C  0.95101793  0.32599720  0.69193345     0.09600
C1032       C  0.92358747  0.32098811  0.72109667     0.35500
C1033       C  0.91365423  0.28316388  0.65097904     0.39000
C1034       C  0.94956110  0.34572985  0.69097963    -0.04600
C1035       C  0.96539248  0.35705218  0.69447953     0.02600
C1036       C  0.98290933  0.34868155  0.69853410    -0.04200
C1037       C  0.98433514  0.32892208  0.69953499    -0.00400
C1038       C  0.96839947  0.31762927  0.69638151    -0.03000
C1039       C  0.93174608  0.35435572  0.68626011     0.36300
C1040       C  0.00204564  0.32021742  0.70449442     0.39900
C1041       C  0.96368570  0.37732592  0.69356234     0.39000
C1042       C  0.96975862  0.29737700  0.69799548     0.36000
C1043       C  0.94512988  0.30724687  0.65650425     0.36600
C1044       C  0.89073834  0.29911069  0.71496185     0.39900
N1045       N  0.96230863  0.39350204  0.69293383    -0.38200
N1046       N  0.91752772  0.36122322  0.68249237    -0.39800
N1047       N  0.01615190  0.31326660  0.70852777    -0.37500
N1048       N  0.97076825  0.28121532  0.69930046    -0.39900
N1049       N  0.92593153  0.32837276  0.73537328    -0.39700
N1050       N  0.87960111  0.29802641  0.72673098    -0.37300
N1051       N  0.91216737  0.27501438  0.63700384    -0.38400
N1052       N  0.95607768  0.30916856  0.64466503    -0.40000
C1053       C  0.74691368  0.25936923  0.58625703    -0.05000
C1054       C  0.75466899  0.25776947  0.56811790     0.09200
C1055       C  0.77385926  0.25356980  0.56597840    -0.02300
C1056       C  0.78518205  0.25046075  0.58192745    -0.00600
C1057       C  0.77739459  0.25175957  0.60016882    -0.04200
C1058       C  0.75819319  0.25630157  0.60224246     0.02800
C1059       C  0.74235060  0.25964763  0.55123711     0.09600
C1060       C  0.78190146  0.25245954  0.54730078     0.35500
C1061       C  0.75008161  0.25830820  0.62080881     0.39000
C1062       C  0.73991035  0.27722845  0.54248045    -0.04600
C1063       C  0.72770675  0.27902541  0.52698861     0.02600
C1064       C  0.71807363  0.26313841  0.51997728    -0.04200
C1065       C  0.72089207  0.24543940  0.52857051    -0.00400
C1066       C  0.73288130  0.24376493  0.54422320    -0.03000
C1067       C  0.75004411  0.29344551  0.54941503     0.36300
C1068       C  0.71101335  0.22899603  0.52177315     0.39900
C1069       C  0.72546061  0.29717428  0.51801015     0.39000
C1070       C  0.73535729  0.22570781  0.55333319     0.36000
C1071       C  0.72731239  0.26437582  0.58839592     0.36600
C1072       C  0.80467418  0.24519184  0.57947248     0.39900
N1073       N  0.72361947  0.31165806  0.51087131    -0.38200
N1074       N  0.75818606  0.30637379  0.55489641    -0.39800
N1075       N  0.70320306  0.21583216  0.51636147    -0.37500
N1076       N  0.73733690  0.21135019  0.56068192    -0.39900
N1077       N  0.78828485  0.25169312  0.53238001    -0.39700
N1078       N  0.82020490  0.24092884  0.57746999    -0.37300
N1079       N  0.74356124  0.25990768  0.63560373    -0.38400
N1080       N  0.71169329  0.26846933  0.59001638    -0.40000
C1081       C  0.83891632  0.82542907  0.04105761    -0.05000
C1082       C  0.82913534  0.81004136  0.04870745     0.09200
C1083       C  0.83111220  0.79212673  0.04054753    -0.02300
C1084       C  0.84276729  0.78958413  0.02471887    -0.00600
C1085       C  0.85271582  0.80497383  0.01700578    -0.04200
C1086       C  0.85070294  0.82293944  0.02532484     0.02800
C1087       C  0.81719815  0.81257544  0.06581319     0.09600
C1088       C  0.82121547  0.77627336  0.04862355     0.35500
C1089       C  0.86130070  0.83881056  0.01825402     0.39000
C1090       C  0.79792198  0.81663976  0.06403872    -0.04600
C1091       C  0.78666561  0.81870583  0.08021515     0.02600
C1092       C  0.79467921  0.81682519  0.09829979    -0.04200
C1093       C  0.81406240  0.81300487  0.10001046    -0.00400
C1094       C  0.82524173  0.81083638  0.08381839    -0.03000
C1095       C  0.78974013  0.81887140  0.04552767     0.36300
C1096       C  0.82246639  0.81076078  0.11842522     0.39900
C1097       C  0.76696798  0.82338886  0.07820392     0.39000
C1098       C  0.84507585  0.80671703  0.08561919     0.36000
C1099       C  0.83704174  0.84379854  0.04964616     0.36600
C1100       C  0.84404146  0.77117722  0.01612391     0.39900
N1101       N  0.75125648  0.82713589  0.07661436    -0.38200
N1102       N  0.78320949  0.82070688  0.03076423    -0.39800
N1103       N  0.82918126  0.80898871  0.13311393    -0.37500
N1104       N  0.86090627  0.80343221  0.08698798    -0.39900
N1105       N  0.81332793  0.76367361  0.05516282    -0.39700
N1106       N  0.84500449  0.75646053  0.00931585    -0.37300
N1107       N  0.86972913  0.85151668  0.01266491    -0.38400
N1108       N  0.83553879  0.85841740  0.05656395    -0.40000
C1109       C  0.77228895  0.93294247  0.22509711    -0.05000
C1110       C  0.76473077  0.93393740  0.24338984     0.09200
C1111       C  0.75396036  0.91880430  0.25027521    -0.02300
C1112       C  0.75094268  0.90273260  0.23910646    -0.00600
C1113       C  0.75776161  0.90197913  0.22041738    -0.04200
C1114       C  0.76845586  0.91731283  0.21349333     0.02800
C1115       C  0.76774399  0.95102118  0.25540752     0.09600
C1116       C  0.74585991  0.91980928  0.26895136     0.35500
C1117       C  0.77503116  0.91754323  0.19421652     0.39000
C1118       C  0.75872960  0.96810062  0.25093262    -0.04600
C1119       C  0.76044297  0.98378311  0.26292293     0.02600
C1120       C  0.77080100  0.98243947  0.27986596    -0.04200
C1121       C  0.78005493  0.96533988  0.28416222    -0.00400
C1122       C  0.77880580  0.94988089  0.27181649    -0.03000
C1123       C  0.74745427  0.96949356  0.23402298     0.36300
C1124       C  0.79012085  0.96314081  0.30172916     0.39900
C1125       C  0.75176044  0.00139013  0.25748093     0.39000
C1126       C  0.78869498  0.93259745  0.27615292     0.36000
C1127       C  0.78401209  0.94809593  0.21818309     0.36600
C1128       C  0.74142293  0.88672041  0.24731632     0.39900
N1129       N  0.74476442  0.01538389  0.25308821    -0.38200
N1130       N  0.73858850  0.97064288  0.22046102    -0.39800
N1131       N  0.79814584  0.96125779  0.31573141    -0.37500
N1132       N  0.79648285  0.91877295  0.27964494    -0.39900
N1133       N  0.73949560  0.92061410  0.28387776    -0.39700
N1134       N  0.73387213  0.87398246  0.25399000    -0.37300
N1135       N  0.78034918  0.91787883  0.17886210    -0.38400
N1136       N  0.79331059  0.96020502  0.21265269    -0.40000
C1137       C  0.63989257  0.76450436  0.16702441    -0.05000
C1138       C  0.63699028  0.75644750  0.18489785     0.09200
C1139       C  0.64915801  0.76108430  0.19980729    -0.02300
C1140       C  0.66442064  0.77333873  0.19677571    -0.00600
C1141       C  0.66739389  0.78142446  0.17887341    -0.04200
C1142       C  0.65497648  0.77699533  0.16402264     0.02800
C1143       C  0.62117333  0.74291456  0.18797341     0.09600
C1144       C  0.64590680  0.75322199  0.21830925     0.35500
C1145       C  0.65743562  0.78558987  0.14571724     0.39000
C1146       C  0.62446850  0.72337781  0.18733868    -0.04600
C1147       C  0.60953076  0.71061867  0.18996810     0.02600
C1148       C  0.59113781  0.71732914  0.19311912    -0.04200
C1149       C  0.58794056  0.73691240  0.19403318    -0.00400
C1150       C  0.60289066  0.74962727  0.19143802    -0.03000
C1151       C  0.64324326  0.71645178  0.18369552     0.36300
C1152       C  0.56934960  0.74402367  0.19824795     0.39900
C1153       C  0.61303105  0.69059402  0.18885409     0.39000
C1154       C  0.59950391  0.76967944  0.19237033     0.36000
C1155       C  0.62729308  0.75989245  0.15172134     0.36600
C1156       C  0.67756355  0.77690030  0.21189480     0.39900
N1157       N  0.61585824  0.67462022  0.18796064    -0.38200
N1158       N  0.65824479  0.71098751  0.18077784    -0.39800
N1159       N  0.55451769  0.74965988  0.20166842    -0.37500
N1160       N  0.59681064  0.78568307  0.19308434    -0.39900
N1161       N  0.64324966  0.74699110  0.23308119    -0.39700
N1162       N  0.68813389  0.77965760  0.22390676    -0.37300
N1163       N  0.65935221  0.79244640  0.13110522    -0.38400
N1164       N  0.61718560  0.75620245  0.13956217    -0.40000
C1165       C  0.10837657  0.82453253  0.74774466    -0.05000
C1166       C  0.12549676  0.82830995  0.73860474     0.09200
C1167       C  0.12715225  0.84445684  0.72725143    -0.02300
C1168       C  0.11195563  0.85705821  0.72551083    -0.00600
C1169       C  0.09442286  0.85290928  0.73401413    -0.04200
C1170       C  0.09271580  0.83623999  0.74481468     0.02800
C1171       C  0.14169006  0.81508615  0.74092079     0.09600
C1172       C  0.14454755  0.84807676  0.71730416     0.35500
C1173       C  0.07471230  0.83038912  0.75225524     0.39000
C1174       C  0.14078525  0.79683206  0.73326203    -0.04600
C1175       C  0.15530475  0.78382911  0.73666846     0.02600
C1176       C  0.17129816  0.78920304  0.74717382    -0.04200
C1177       C  0.17248539  0.80778781  0.75417419    -0.00400
C1178       C  0.15757234  0.82049642  0.75140920    -0.03000
C1179       C  0.12465900  0.79131048  0.72212182     0.36300
C1180       C  0.18923954  0.81417015  0.76379658     0.39900
C1181       C  0.15322011  0.76470014  0.72999632     0.39000
C1182       C  0.15843869  0.83910447  0.75965033     0.36000
C1183       C  0.10690290  0.80850775  0.76027584     0.36600
C1184       C  0.11481386  0.87456845  0.71551033     0.39900
N1185       N  0.15143608  0.74946942  0.72463836    -0.38200
N1186       N  0.11172783  0.78688593  0.71336985    -0.39800
N1187       N  0.20257446  0.81933724  0.77147035    -0.37500
N1188       N  0.15915307  0.85396008  0.76617621    -0.39900
N1189       N  0.15843373  0.85094756  0.70940359    -0.39700
N1190       N  0.11729552  0.88851648  0.70754619    -0.37300
N1191       N  0.06041365  0.82551108  0.75818565    -0.38400
N1192       N  0.10580114  0.79573095  0.77025760    -0.40000
C1193       C  0.30699612  0.73094895  0.86200196    -0.05000
C1194       C  0.31233384  0.74933220  0.86700464     0.09200
C1195       C  0.30570278  0.76471959  0.85645304    -0.02300
C1196       C  0.29394145  0.76177270  0.84081976    -0.00600
C1197       C  0.28868460  0.74333904  0.83562447    -0.04200
C1198       C  0.29523793  0.72793533  0.84634963     0.02800
C1199       C  0.32528534  0.75264591  0.88318705     0.09600
C1200       C  0.31118455  0.78362587  0.86166000     0.35500
C1201       C  0.28954818  0.70897710  0.84159236     0.39000
C1202       C  0.34457940  0.75550193  0.87992523    -0.04600
C1203       C  0.35667422  0.75987629  0.89497392     0.02600
C1204       C  0.34951459  0.76146719  0.91342393    -0.04200
C1205       C  0.33016468  0.75845797  0.91665572    -0.00400
C1206       C  0.31815082  0.75386562  0.90160761    -0.03000
C1207       C  0.35196250  0.75374396  0.86102584     0.36300
C1208       C  0.32242135  0.76081086  0.93534710     0.39900
C1209       C  0.37657163  0.76217649  0.89148663     0.39000
C1210       C  0.29840718  0.75039476  0.90503036     0.36000
C1211       C  0.31365172  0.71514223  0.87298307     0.36600
C1212       C  0.28789707  0.77774093  0.82970567     0.39900
N1213       N  0.39244709  0.76398874  0.88867282    -0.38200
N1214       N  0.35777737  0.75229179  0.84592512    -0.39800
N1215       N  0.31622170  0.76277816  0.95023640    -0.37500
N1216       N  0.28268302  0.74747675  0.90776060    -0.39900
N1217       N  0.31563851  0.79866500  0.86586014    -0.39700
N1218       N  0.28311651  0.79052301  0.82087892    -0.37300
N1219       N  0.28502378  0.69385695  0.83776494    -0.38400
N1220       N  0.31891284  0.70252206  0.88176577    -0.40000
C1221       C  0.25648605  0.63417727  0.69842816    -0.05000
C1222       C  0.26129355  0.63723897  0.67946326     0.09200
C1223       C  0.26352429  0.65570340  0.67268791    -0.02300
C1224       C  0.26070779  0.67109666  0.68478968    -0.00600
C1225       C  0.25638525  0.66805243  0.70392142    -0.04200
C1226       C  0.25437992  0.64951926  0.71072622     0.02800
C1227       C  0.26375215  0.62091556  0.66656787     0.09600
C1228       C  0.26881261  0.65879642  0.65326243     0.35500
C1229       C  0.24951553  0.64620453  0.73022953     0.39000
C1230       C  0.24908151  0.61562230  0.65441788    -0.04600
C1231       C  0.25107316  0.59975138  0.64279117     0.02600
C1232       C  0.26774238  0.58899385  0.64336304    -0.04200
C1233       C  0.28259782  0.59460226  0.65525242    -0.00400
C1234       C  0.28058282  0.61052717  0.66681557    -0.03000
C1235       C  0.23188651  0.62650752  0.65399554     0.36300
C1236       C  0.29974961  0.58367845  0.65609522     0.39900
C1237       C  0.23614615  0.59486935  0.62984905     0.39000
C1238       C  0.29576397  0.61620284  0.67911842     0.36000
C1239       C  0.25328892  0.61520842  0.70512875     0.36600
C1240       C  0.26250834  0.69005755  0.67757753     0.39900
N1241       N  0.22424178  0.59102422  0.61950435    -0.38200
N1242       N  0.21821499  0.63525648  0.65366234    -0.39800
N1243       N  0.31345202  0.57499488  0.65676964    -0.37500
N1244       N  0.30783763  0.62075150  0.68896548    -0.39900
N1245       N  0.27307452  0.66120977  0.63776838    -0.39700
N1246       N  0.26382352  0.70518073  0.67178404    -0.37300
N1247       N  0.24567411  0.64353167  0.74579254    -0.38400
N1248       N  0.25063396  0.60006457  0.71037704    -0.40000
loop_ 
_geom_bond_atom_site_label_1 
_geom_bond_atom_site_label_2 
_geom_bond_distance 
_geom_bond_site_symmetry_2 
_ccdc_geom_bond_type 
N1            N2   1.322       .  A
N1            C5   1.345       .  A
N1           Cu9   2.075       .  S
N2            C3   1.345       .  A
N2           Cu8   2.074       .  S
C3            C4   1.385       .  A
C3            H6   1.082       .  S
C4            C5   1.385       .  A
C4         C1197   1.489       .  S
C5            H7   1.082       .  S
Cu8          N11   2.073       .  S
Cu9          N19   2.074       .  S
Cu10         N12   2.066       .  S
Cu10         N18   2.066       .  S
N11          N12   1.321       .  A
N11          C15   1.344       .  A
N12          C13   1.343       .  A
C13          C14   1.386       .  A
C13          H16   1.083       .  S
C14          C15   1.387       .  A
C14        C1176   1.492       .  S
C15          H17   1.083       .  S
N18          N19   1.322       .  A
N18          C22   1.344       .  A
N19          C20   1.345       .  A
C20          C21   1.383       .  A
C20          H23   1.081       .  S
C21          C22   1.381       .  A
C21        C1225   1.482       .  S
C22          H24   1.082       .  S
N25          N26   1.321       .  A
N25          C29   1.346       .  A
N25         Cu33   2.091       .  S
N26          C27   1.345       .  A
N26         Cu32   2.071       .  S
C27          C28   1.387       .  A
C27          H30   1.081       .  S
C28          C29   1.391       .  A
C28        C1113   1.501       .  S
C29          H31   1.081       .  S
Cu32         N35   2.071       .  S
Cu33         N43   2.092       .  S
Cu34         N36   2.075       .  S
Cu34         N42   2.075       .  S
N35          N36   1.322       .  A
N35          C39   1.345       .  A
N36          C37   1.345       .  A
C37          C38   1.385       .  A
C37          H40   1.082       .  S
C38          C39   1.384       .  A
C38        C1092   1.488       .  S
C39          H41   1.082       .  S
N42          N43   1.323       .  A
N42          C46   1.346       .  A
N43          C44   1.348       .  A
C44          C45   1.388       .  A
C44          H47   1.080       .  S
C45          C46   1.383       .  A
C45        C1141   1.492       .  S
C46          H48   1.081       .  S
N49          N50   1.323       .  A
N49          C53   1.345       .  A
N49         Cu57   2.076       .  S
N50          C51   1.347       .  A
N50         Cu56   2.084       .  S
C51          C52   1.386       .  A
C51          H54   1.082       .  S
C52          C53   1.383       .  A
C52        C1057   1.489       .  S
C53          H55   1.082       .  S
Cu56         N59   2.084       .  S
Cu57         N67   2.076       .  S
Cu58         N60   2.074       .  S
Cu58         N66   2.073       .  S
N59          N60   1.323       .  A
N59          C63   1.347       .  A
N60          C61   1.345       .  A
C61          C62   1.383       .  A
C61          H64   1.082       .  S
C62          C63   1.386       .  A
C62        C1008   1.489       .  S
C63          H65   1.082       .  S
N66          N67   1.321       .  A
N66          C70   1.345       .  A
N67          C68   1.346       .  A
C68          C69   1.386       .  A
C68          H71   1.081       .  S
C69          C70   1.385       .  A
C69        C1029   1.491       .  S
C70          H72   1.080       .  S
N73          N74   1.323       .  A
N73          C77   1.347       .  A
N73         Cu81   2.083       .  S
N74          C75   1.344       .  A
N74         Cu80   2.075       .  S
C75          C76   1.384       .  A
C75          H78   1.082       .  S
C76          C77   1.386       .  A
C76         C973   1.490       .  S
C77          H79   1.082       .  S
Cu80         N83   2.075       .  S
Cu81         N91   2.084       .  S
Cu82         N84   2.081       .  S
Cu82         N90   2.081       .  S
N83          N84   1.322       .  A
N83          C87   1.346       .  A
N84          C85   1.347       .  A
C85          C86   1.385       .  A
C85          H88   1.082       .  S
C86          C87   1.384       .  A
C86         C165   1.475       .  S
C87          H89   1.082       .  S
N90          N91   1.323       .  A
N90          C94   1.345       .  A
N91          C92   1.347       .  A
C92          C93   1.387   1_556  A
C92          H95   1.082   1_556  S
C93          C94   1.386   1_554  A
C93        C1085   1.495       .  S
C94          H96   1.081       .  S
N97          N98   1.321       .  A
N97         C101   1.345       .  A
N97        Cu105   2.074       .  S
N98          C99   1.344       .  A
N98        Cu104   2.081       .  S
C99         C100   1.389       .  A
C99         H102   1.082       .  S
C100        C101   1.389       .  A
C100       C1169   1.499       .  S
C101        H103   1.082       .  S
Cu104       N107   2.082       .  S
Cu105       N115   2.075       .  S
Cu106       N108   2.079       .  S
Cu106       N114   2.079   1_655  S
N107        N108   1.322   1_455  A
N107        C111   1.347   1_455  A
N108        C109   1.346       .  A
C109        C110   1.384       .  A
C109        H112   1.082       .  S
C110        C111   1.385       .  A
C110        C148   1.477       .  S
C111        H113   1.083       .  S
N114        N115   1.321       .  A
N114        C118   1.344       .  A
N115        C116   1.346       .  A
C116        C117   1.389       .  A
C116        H119   1.081       .  S
C117        C118   1.388       .  A
C117        C945   1.498       .  S
C118        H120   1.081   1_455  S
N121        N122   1.323       .  A
N121        C125   1.347       .  A
N121       Cu129   2.084       .  S
N122        C123   1.345       .  A
N122       Cu128   2.078       .  S
C123        C124   1.383       .  A
C123        H126   1.081       .  S
C124        C125   1.385       .  A
C124       C1001   1.488       .  S
C125        H127   1.082       .  S
Cu128       N131   2.077   1_545  S
Cu129       N139   2.083       .  S
Cu130       N132   2.075       .  S
Cu130       N138   2.074   1_565  S
N131        N132   1.322       .  A
N131        C135   1.347       .  A
N132        C133   1.345       .  A
C133        C134   1.384       .  A
C133        H136   1.083       .  S
C134        C135   1.385       .  A
C134        C158   1.475       .  S
C135        H137   1.082       .  S
N138        N139   1.321       .  A
N138        C142   1.344   1_545  A
N139        C140   1.345       .  A
C140        C141   1.391       .  A
C140        H143   1.088       .  S
C141        C142   1.389   1_545  A
C141        C924   1.502       .  S
C142        H144   1.077       .  S
N145        N146   1.323       .  A
N145        C149   1.347       .  A
N145       Cu153   2.084       .  S
N146        C147   1.347       .  A
N146       Cu152   2.084       .  S
C147        C148   1.385       .  A
C147        H150   1.083       .  S
C148        C149   1.385       .  A
C149        H151   1.083       .  S
Cu152       N155   2.084       .  S
Cu153       N163   2.084       .  S
Cu154       N156   2.077       .  S
Cu154       N162   2.077       .  S
N155        N156   1.323       .  A
N155        C159   1.347       .  A
N156        C157   1.345       .  A
C157        C158   1.383       .  A
C157        H160   1.082       .  S
C158        C159   1.385       .  A
C159        H161   1.082       .  S
N162        N163   1.323       .  A
N162        C166   1.346       .  A
N163        C164   1.347       .  A
C164        C165   1.385       .  A
C164        H167   1.082       .  S
C165        C166   1.384       .  A
C166        H168   1.082       .  S
N169        N170   1.323       .  A
N169        C173   1.345       .  A
N169       Cu177   2.076       .  S
N170        C171   1.346       .  A
N170       Cu176   2.083       .  S
C171        C172   1.386       .  A
C171        H174   1.083       .  S
C172        C173   1.384       .  A
C172        C861   1.490       .  S
C173        H175   1.082       .  S
Cu176       N179   2.083       .  S
Cu177       N187   2.076       .  S
Cu178       N180   2.069       .  S
Cu178       N186   2.069       .  S
N179        N180   1.322       .  A
N179        C183   1.347       .  A
N180        C181   1.345       .  A
C181        C182   1.381       .  A
C181        H184   1.082       .  S
C182        C183   1.384       .  A
C182        C889   1.484       .  S
C183        H185   1.082       .  S
N186        N187   1.322       .  A
N186        C190   1.343       .  A
N187        C188   1.346       .  A
C188        C189   1.385       .  A
C188        H191   1.082       .  S
C189        C190   1.382       .  A
C189        C833   1.486       .  S
C190        H192   1.082       .  S
N193        N194   1.321   1_565  A
N193        C197   1.346       .  A
N193       Cu201   2.084       .  S
N194        C195   1.345       .  A
N194       Cu200   2.071   1_556  S
C195        C196   1.387   1_545  A
C195        H198   1.083       .  S
C196        C197   1.389       .  A
C196        C917   1.498       .  S
C197        H199   1.082       .  S
Cu200       N203   2.071       .  S
Cu201       N211   2.085       .  S
Cu202       N204   2.082   1_565  S
Cu202       N210   2.083       .  S
N203        N204   1.322       .  A
N203        C207   1.344       .  A
N204        C205   1.346       .  A
C205        C206   1.388       .  A
C205        H208   1.081       .  S
C206        C207   1.385       .  A
C206        C812   1.494       .  S
C207        H209   1.081       .  S
N210        N211   1.323   1_554  A
N210        C214   1.348       .  A
N211        C212   1.346       .  A
C212        C213   1.385       .  A
C212        H215   1.081       .  S
C213        C214   1.385   1_556  A
C213        C777   1.491       .  S
C214        H216   1.082       .  S
N217        N218   1.322       .  A
N217        C221   1.346       .  A
N217       Cu225   2.080       .  S
N218        C219   1.346       .  A
N218       Cu224   2.072       .  S
C219        C220   1.383       .  A
C219        H222   1.082       .  S
C220        C221   1.385       .  A
C220        C756   1.488       .  S
C221        H223   1.082       .  S
Cu224       N227   2.072       .  S
Cu225       N235   2.080       .  S
Cu226       N228   2.081       .  S
Cu226       N234   2.080       .  S
N227        N228   1.323       .  A
N227        C231   1.344       .  A
N228        C229   1.347       .  A
C229        C230   1.385       .  A
C229        H232   1.083       .  S
C230        C231   1.382       .  A
C230        C292   1.472       .  S
C231        H233   1.083       .  S
N234        N235   1.322       .  A
N234        C238   1.345       .  A
N235        C236   1.345       .  A
C236        C237   1.388       .  A
C236        H239   1.081       .  S
C237        C238   1.389       .  A
C237        C721   1.500       .  S
C238        H240   1.082       .  S
N241        N242   1.323       .  A
N241        C245   1.348       .  A
N241       Cu249   2.086       .  S
N242        C243   1.344       .  A
N242       Cu248   2.074       .  S
C243        C244   1.382       .  A
C243        H246   1.082       .  S
C244        C245   1.386       .  A
C244        C896   1.488       .  S
C245        H247   1.082       .  S
Cu248       N251   2.073       .  S
Cu249       N259   2.086       .  S
Cu250       N252   2.077       .  S
Cu250       N258   2.077       .  S
N251        N252   1.322       .  A
N251        C255   1.346       .  A
N252        C253   1.345       .  A
C253        C254   1.383       .  A
C253        H256   1.082       .  S
C254        C255   1.383       .  A
C254        C309   1.472       .  S
C255        H257   1.081       .  S
N258        N259   1.323       .  A
N258        C262   1.345       .  A
N259        C260   1.348       .  A
C260        C261   1.386       .  A
C260        H263   1.081       .  S
C261        C262   1.384       .  A
C261       C1148   1.491       .  S
C262        H264   1.081       .  S
N265        N266   1.324       .  A
N265        C269   1.348       .  A
N265       Cu273   2.090       .  S
N266        C267   1.345       .  A
N266       Cu272   2.079   1_556  S
C267        C268   1.384       .  A
C267        H270   1.081   1_556  S
C268        C269   1.387       .  A
C268        C784   1.492       .  S
C269        H271   1.081       .  S
Cu272       N275   2.078       .  S
Cu273       N283   2.090       .  S
Cu274       N276   2.063   1_556  S
Cu274       N282   2.063       .  S
N275        N276   1.321       .  A
N275        C279   1.347       .  A
N276        C277   1.343       .  A
C277        C278   1.381       .  A
C277        H280   1.082       .  S
C278        C279   1.385       .  A
C278        C302   1.471       .  S
C279        H281   1.083       .  S
N282        N283   1.322       .  A
N282        C286   1.343       .  A
N283        C284   1.348       .  A
C284        C285   1.388       .  A
C284        H287   1.082       .  S
C285        C286   1.381       .  A
C285       C1204   1.489       .  S
C286        H288   1.082       .  S
N289        N290   1.323       .  A
N289        C293   1.345       .  A
N289       Cu297   2.079       .  S
N290        C291   1.346       .  A
N290       Cu296   2.073       .  S
C291        C292   1.383       .  A
C291        H294   1.083       .  S
C292        C293   1.384       .  A
C293        H295   1.082       .  S
Cu296       N299   2.073       .  S
Cu297       N307   2.079       .  S
Cu298       N300   2.073       .  S
Cu298       N306   2.073       .  S
N299        N300   1.322       .  A
N299        C303   1.344       .  A
N300        C301   1.346       .  A
C301        C302   1.383       .  A
C301        H304   1.081       .  S
C302        C303   1.383       .  A
C303        H305   1.083       .  S
N306        N307   1.323       .  A
N306        C310   1.345       .  A
N307        C308   1.346       .  A
C308        C309   1.384       .  A
C308        H311   1.082       .  S
C309        C310   1.382       .  A
C310        H312   1.081       .  S
N313        N314   1.322       .  A
N313        C317   1.341       .  A
N313       Cu321   2.057   1_455  S
N314        C315   1.348       .  A
N314       Cu320   2.083       .  S
C315        C316   1.386       .  A
C315        H318   1.081       .  S
C316        C317   1.378       .  A
C316        C700   1.482       .  S
C317        H319   1.082       .  S
Cu320       N323   2.083       .  S
Cu321       N331   2.057       .  S
Cu322       N324   2.082       .  S
Cu322       N330   2.081       .  S
N323        N324   1.322   1_455  A
N323        C327   1.346       .  A
N324        C325   1.344       .  A
C325        C326   1.389   1_655  A
C325        H328   1.080       .  S
C326        C327   1.390       .  A
C326        C952   1.503       .  S
C327        H329   1.081       .  S
N330        N331   1.320       .  A
N330        C334   1.347       .  A
N331        C332   1.342       .  A
C332        C333   1.383       .  A
C332        H335   1.082       .  S
C333        C334   1.389       .  A
C333        C672   1.491       .  S
C334        H336   1.082       .  S
N337        N338   1.323       .  A
N337        C341   1.346       .  A
N337       Cu345   2.076       .  S
N338        C339   1.344       .  A
N338       Cu344   2.072       .  S
C339        C340   1.381       .  A
C339        H342   1.082       .  S
C340        C341   1.383       .  A
C340        C868   1.483       .  S
C341        H343   1.082       .  S
Cu344       N347   2.072       .  S
Cu345       N355   2.076       .  S
Cu346       N348   2.071       .  S
Cu346       N354   2.071       .  S
N347        N348   1.322       .  A
N347        C351   1.345       .  A
N348        C349   1.345       .  A
C349        C350   1.383       .  A
C349        H352   1.082       .  S
C350        C351   1.383       .  A
C350        C422   1.470       .  S
C351        H353   1.083       .  S
N354        N355   1.322       .  A
N354        C358   1.344       .  A
N355        C356   1.345       .  A
C356        C357   1.385       .  A
C356        H359   1.082       .  S
C357        C358   1.384       .  A
C357       C1064   1.488       .  S
C358        H360   1.082       .  S
N361        N362   1.320       .  A
N361        C365   1.344       .  A
N361       Cu369   2.071       .  S
N362        C363   1.343       .  A
N362       Cu368   2.067       .  S
C363        C364   1.388       .  A
C363        H366   1.081       .  S
C364        C365   1.389       .  A
C364        C805   1.497       .  S
C365        H367   1.081       .  S
Cu368       N371   2.068       .  S
Cu369       N379   2.072       .  S
Cu370       N372   2.080       .  S
Cu370       N378   2.080       .  S
N371        N372   1.322       .  A
N371        C375   1.345       .  A
N372        C373   1.346       .  A
C373        C374   1.384       .  A
C373        H376   1.083       .  S
C374        C375   1.382       .  A
C374        C412   1.471       .  S
C375        H377   1.082       .  S
N378        N379   1.322       .  A
N378        C382   1.345       .  A
N379        C380   1.346       .  A
C380        C381   1.384       .  A
C380        H383   1.080       .  S
C381        C382   1.386       .  A
C381        C637   1.490       .  S
C382        H384   1.081       .  S
N385        N386   1.321       .  A
N385        C389   1.346       .  A
N385       Cu393   2.078       .  S
N386        C387   1.343       .  A
N386       Cu392   2.064       .  S
C387        C388   1.383       .  A
C387        H390   1.082       .  S
C388        C389   1.387       .  A
C388        C665   1.489       .  S
C389        H391   1.082       .  S
Cu392       N395   2.064       .  S
Cu393       N403   2.078       .  S
Cu394       N396   2.080       .  S
Cu394       N402   2.080       .  S
N395        N396   1.322       .  A
N395        C399   1.343       .  A
N396        C397   1.346       .  A
C397        C398   1.385       .  A
C397        H400   1.083       .  S
C398        C399   1.381       .  A
C398        C429   1.471       .  S
C399        H401   1.083       .  S
N402        N403   1.322       .  A
N402        C406   1.345       .  A
N403        C404   1.345       .  A
C404        C405   1.388   1_545  A
C404        H407   1.081       .  S
C405        C406   1.388   1_565  A
C405       C1120   1.498       .  S
C406        H408   1.082       .  S
N409        N410   1.322       .  A
N409        C413   1.346       .  A
N409       Cu417   2.077       .  S
N410        C411   1.344       .  A
N410       Cu416   2.070       .  S
C411        C412   1.382       .  A
C411        H414   1.082       .  S
C412        C413   1.384       .  A
C413        H415   1.083       .  S
Cu416       N419   2.070       .  S
Cu417       N427   2.076       .  S
Cu418       N420   2.073       .  S
Cu418       N426   2.074       .  S
N419        N420   1.322       .  A
N419        C423   1.344       .  A
N420        C421   1.345       .  A
C421        C422   1.383       .  A
C421        H424   1.083       .  S
C422        C423   1.383       .  A
C423        H425   1.082       .  S
N426        N427   1.323       .  A
N426        C430   1.344       .  A
N427        C428   1.346       .  A
C428        C429   1.383       .  A
C428        H431   1.083       .  S
C429        C430   1.383       .  A
C430        H432   1.083       .  S
N433        N434   1.322       .  A
N433        C437   1.345       .  A
N433       Cu441   2.075       .  S
N434        C435   1.344       .  A
N434       Cu440   2.069       .  S
C435        C436   1.382       .  A
C435        H438   1.082       .  S
C436        C437   1.383       .  A
C436        C644   1.483       .  S
C437        H439   1.082       .  S
Cu440       N443   2.069       .  S
Cu441       N451   2.075       .  S
Cu442       N444   2.079       .  S
Cu442       N450   2.079       .  S
N443        N444   1.322       .  A
N443        C447   1.344       .  A
N444        C445   1.345       .  A
C445        C446   1.386       .  A
C445        H448   1.082       .  S
C446        C447   1.384       .  A
C446        C616   1.490       .  S
C447        H449   1.081       .  S
N450        N451   1.322       .  A
N450        C454   1.346       .  A
N451        C452   1.345       .  A
C452        C453   1.384       .  A
C452        H455   1.081       .  S
C453        C454   1.385       .  A
C453        C749   1.490       .  S
C454        H456   1.082       .  S
N457        N458   1.322       .  A
N457        C461   1.344       .  A
N457       Cu465   2.069       .  S
N458        C459   1.345       .  A
N458       Cu464   2.072       .  S
C459        C460   1.382       .  A
C459        H462   1.082       .  S
C460        C461   1.382       .  A
C460        C980   1.482       .  S
C461        H463   1.081       .  S
Cu464       N467   2.072       .  S
Cu465       N475   2.069       .  S
Cu466       N468   2.080       .  S
Cu466       N474   2.080       .  S
N467        N468   1.322       .  A
N467        C471   1.344       .  A
N468        C469   1.345       .  A
C469        C470   1.388       .  A
C469        H472   1.082       .  S
C470        C471   1.386       .  A
C470        C728   1.495       .  S
C471        H473   1.082       .  S
N474        N475   1.321       .  A
N474        C478   1.345       .  A
N475        C476   1.344       .  A
C476        C477   1.386       .  A
C476        H479   1.082       .  S
C477        C478   1.388       .  A
C477        C588   1.495       .  S
C478        H480   1.082       .  S
N481        N482   1.322       .  A
N481        C485   1.344       .  A
N481       Cu489   2.066       .  S
N482        C483   1.345       .  A
N482       Cu488   2.078       .  S
C483        C484   1.384       .  A
C483        H486   1.082       .  S
C484        C485   1.382       .  A
C484        C609   1.484       .  S
C485        H487   1.082       .  S
Cu488       N491   2.078       .  S
Cu489       N499   2.066       .  S
Cu490       N492   2.077       .  S
Cu490       N498   2.076       .  S
N491        N492   1.323       .  A
N491        C495   1.345       .  A
N492        C493   1.346       .  A
C493        C494   1.384       .  A
C493        H496   1.082       .  S
C494        C495   1.384       .  A
C494        C573   1.474       .  S
C495        H497   1.081       .  S
N498        N499   1.322       .  A
N498        C502   1.345       .  A
N499        C500   1.344       .  A
C500        C501   1.382       .  A
C500        H503   1.082       .  S
C501        C502   1.384       .  A
C501        C693   1.484       .  S
C502        H504   1.081       .  S
N505        N506   1.322       .  A
N505        C509   1.344       .  A
N505       Cu513   2.066       .  S
N506        C507   1.344       .  A
N506       Cu512   2.073       .  S
C507        C508   1.384       .  A
C507        H510   1.082       .  S
C508        C509   1.383       .  A
C508       C1232   1.485       .  S
C509        H511   1.082       .  S
Cu512       N515   2.074       .  S
Cu513       N523   2.066       .  S
Cu514       N516   2.077       .  S
Cu514       N522   2.077       .  S
N515        N516   1.322       .  A
N515        C519   1.346       .  A
N516        C517   1.345       .  A
C517        C518   1.384       .  A
C517        H520   1.083       .  S
C518        C519   1.383       .  A
C518        C566   1.473       .  S
C519        H521   1.082       .  S
N522        N523   1.322       .  A
N522        C526   1.345       .  A
N523        C524   1.344       .  A
C524        C525   1.383       .  A
C524        H527   1.081       .  S
C525        C526   1.385       .  A
C525        C840   1.487       .  S
C526        H528   1.081       .  S
N529        N530   1.323       .  A
N529        C533   1.345       .  A
N529       Cu537   2.073       .  S
N530        C531   1.346       .  A
N530       Cu536   2.078       .  S
C531        C532   1.383   1_455  A
C531        H534   1.082       .  S
C532        C533   1.383   1_655  A
C532       C1036   1.485       .  S
C533        H535   1.082   1_455  S
Cu536       N539   2.079       .  S
Cu537       N547   2.073       .  S
Cu538       N540   2.078       .  S
Cu538       N546   2.078       .  S
N539        N540   1.323       .  A
N539        C543   1.346       .  A
N540        C541   1.346       .  A
C541        C542   1.384       .  A
C541        H544   1.081       .  S
C542        C543   1.384       .  A
C542        C556   1.475       .  S
C543        H545   1.083       .  S
N546        N547   1.322       .  A
N546        C550   1.345       .  A
N547        C548   1.345       .  A
C548        C549   1.385       .  A
C548        H551   1.082       .  S
C549        C550   1.385       .  A
C549        C581   1.489       .  S
C550        H552   1.082       .  S
N553        N554   1.323       .  A
N553        C557   1.346       .  A
N553       Cu561   2.080       .  S
N554        C555   1.346       .  A
N554       Cu560   2.080       .  S
C555        C556   1.384       .  A
C555        H558   1.083       .  S
C556        C557   1.384       .  A
C557        H559   1.081       .  S
Cu560       N563   2.079       .  S
Cu561       N571   2.080       .  S
Cu562       N564   2.074       .  S
Cu562       N570   2.074       .  S
N563        N564   1.323       .  A
N563        C567   1.346       .  A
N564        C565   1.345       .  A
C565        C566   1.383       .  A
C565        H568   1.082       .  S
C566        C567   1.384       .  A
C567        H569   1.082       .  S
N570        N571   1.322       .  A
N570        C574   1.345       .  A
N571        C572   1.347       .  A
C572        C573   1.385       .  A
C572        H575   1.081       .  S
C573        C574   1.383       .  A
C574        H576   1.083       .  S
C577        C578   1.409       .  A
C577        C582   1.410       .  A
C577        C595   1.451       .  S
C578        C579   1.409       .  A
C578        C583   1.495       .  S
C579        C580   1.411       .  A
C579        C584   1.451       .  S
C580        C581   1.416       .  A
C580        C596   1.451       .  S
C581        C582   1.415       .  A
C582        C585   1.451       .  S
C583        C586   1.409       .  A
C583        C590   1.408       .  A
C584        N601   1.157       .  T
C585        N603   1.157       .  T
C586        C587   1.411       .  A
C586        C591   1.451       .  S
C587        C588   1.418       .  A
C587        C593   1.451       .  S
C588        C589   1.419       .  A
C589        C590   1.411       .  A
C589        C592   1.451       .  S
C590        C594   1.451       .  S
C591        N598   1.157       .  T
C592        N599   1.157       .  T
C593        N597   1.157       .  T
C594        N600   1.157       .  T
C595        N604   1.157       .  T
C596        N602   1.157       .  T
C605        C606   1.410       .  A
C605        C610   1.410       .  A
C605        C623   1.450       .  S
C606        C607   1.410       .  A
C606        C611   1.494       .  S
C607        C608   1.410       .  A
C607        C612   1.451       .  S
C608        C609   1.414       .  A
C608        C624   1.451       .  S
C609        C610   1.414       .  A
C610        C613   1.451       .  S
C611        C614   1.409       .  A
C611        C618   1.409       .  A
C612        N629   1.157       .  T
C613        N631   1.157       .  T
C614        C615   1.411       .  A
C614        C619   1.451       .  S
C615        C616   1.417       .  A
C615        C621   1.451       .  S
C616        C617   1.416       .  A
C617        C618   1.410       .  A
C617        C620   1.451       .  S
C618        C622   1.451       .  S
C619        N626   1.157       .  T
C620        N627   1.157       .  T
C621        N625   1.157       .  T
C622        N628   1.157       .  T
C623        N632   1.157       .  T
C624        N630   1.157       .  T
C633        C634   1.409       .  A
C633        C638   1.411       .  A
C633        C651   1.451       .  S
C634        C635   1.409       .  A
C634        C639   1.494       .  S
C635        C636   1.410       .  A
C635        C640   1.451       .  S
C636        C637   1.416       .  A
C636        C652   1.451       .  S
C637        C638   1.416       .  A
C638        C641   1.450       .  S
C639        C642   1.410       .  A
C639        C646   1.410       .  A
C640        N657   1.157       .  T
C641        N659   1.157       .  T
C642        C643   1.410       .  A
C642        C647   1.450       .  S
C643        C644   1.413       .  A
C643        C649   1.451       .  S
C644        C645   1.413       .  A
C645        C646   1.410       .  A
C645        C648   1.451       .  S
C646        C650   1.450       .  S
C647        N654   1.157       .  T
C648        N655   1.157       .  T
C649        N653   1.157       .  T
C650        N656   1.157       .  T
C651        N660   1.157       .  T
C652        N658   1.157       .  T
C661        C662   1.409       .  A
C661        C666   1.410       .  A
C661        C679   1.451       .  S
C662        C663   1.409       .  A
C662        C667   1.493       .  S
C663        C664   1.410       .  A
C663        C668   1.451       .  S
C664        C665   1.417       .  A
C664        C680   1.451       .  S
C665        C666   1.416       .  A
C666        C669   1.451       .  S
C667        C670   1.408       .  A
C667        C674   1.409       .  A
C668        N685   1.157       .  T
C669        N687   1.157       .  T
C670        C671   1.410       .  A
C670        C675   1.451       .  S
C671        C672   1.418       .  A
C671        C677   1.451       .  S
C672        C673   1.416       .  A
C673        C674   1.411       .  A
C673        C676   1.451       .  S
C674        C678   1.451       .  S
C675        N682   1.157       .  T
C676        N683   1.157       .  T
C677        N681   1.157       .  T
C678        N684   1.157       .  T
C679        N688   1.157       .  T
C680        N686   1.157       .  T
C689        C690   1.411       .  A
C689        C694   1.410       .  A
C689        C707   1.450       .  S
C690        C691   1.410       .  A
C690        C695   1.493       .  S
C691        C692   1.409       .  A
C691        C696   1.451       .  S
C692        C693   1.414       .  A
C692        C708   1.451       .  S
C693        C694   1.413       .  A
C694        C697   1.451       .  S
C695        C698   1.410       .  A
C695        C702   1.411       .  A
C696        N713   1.157       .  T
C697        N715   1.157       .  T
C698        C699   1.408       .  A
C698        C703   1.451       .  S
C699        C700   1.413       .  A
C699        C705   1.451       .  S
C700        C701   1.413       .  A
C701        C702   1.410       .  A
C701        C704   1.450       .  S
C702        C706   1.450       .  S
C703        N710   1.157       .  T
C704        N711   1.157       .  T
C705        N709   1.157       .  T
C706        N712   1.157       .  T
C707        N716   1.157       .  T
C708        N714   1.157       .  T
C717        C718   1.410       .  A
C717        C722   1.411       .  A
C717        C735   1.452   1_554  S
C718        C719   1.410       .  A
C718        C723   1.500       .  S
C719        C720   1.413       .  A
C719        C724   1.451       .  S
C720        C721   1.420       .  A
C720        C736   1.450       .  S
C721        C722   1.419       .  A
C722        C725   1.451       .  S
C723        C726   1.411   1_554  A
C723        C730   1.411       .  A
C724        N741   1.157       .  T
C725        N743   1.157       .  T
C726        C727   1.411       .  A
C726        C731   1.451       .  S
C727        C728   1.417       .  A
C727        C733   1.451       .  S
C728        C729   1.418       .  A
C729        C730   1.412   1_556  A
C729        C732   1.451   1_556  S
C730        C734   1.451       .  S
C731        N738   1.157       .  T
C732        N739   1.157       .  T
C733        N737   1.157       .  T
C734        N740   1.157       .  T
C735        N744   1.157       .  T
C736        N742   1.157       .  T
C745        C746   1.410       .  A
C745        C750   1.411       .  A
C745        C763   1.451       .  S
C746        C747   1.410       .  A
C746        C751   1.497       .  S
C747        C748   1.412       .  A
C747        C752   1.451       .  S
C748        C749   1.416       .  A
C748        C764   1.451       .  S
C749        C750   1.415       .  A
C750        C753   1.451       .  S
C751        C754   1.411       .  A
C751        C758   1.410       .  A
C752        N769   1.157       .  T
C753        N771   1.157       .  T
C754        C755   1.412       .  A
C754        C759   1.451       .  S
C755        C756   1.415       .  A
C755        C761   1.451       .  S
C756        C757   1.414       .  A
C757        C758   1.410       .  A
C757        C760   1.451       .  S
C758        C762   1.451       .  S
C759        N766   1.157       .  T
C760        N767   1.157       .  T
C761        N765   1.157       .  T
C762        N768   1.157       .  T
C763        N772   1.157       .  T
C764        N770   1.157       .  T
C773        C774   1.411       .  A
C773        C778   1.412       .  A
C773        C791   1.450   1_556  S
C774        C775   1.411       .  A
C774        C779   1.500       .  S
C775        C776   1.414       .  A
C775        C780   1.450       .  S
C776        C777   1.415       .  A
C776        C792   1.450       .  S
C777        C778   1.415       .  A
C778        C781   1.451   1_556  S
C779        C782   1.411   1_556  A
C779        C786   1.411       .  A
C780        N797   1.157       .  T
C781        N799   1.157       .  T
C782        C783   1.412       .  A
C782        C787   1.450       .  S
C783        C784   1.416   1_554  A
C783        C789   1.451       .  S
C784        C785   1.415       .  A
C785        C786   1.413       .  A
C785        C788   1.450       .  S
C786        C790   1.450       .  S
C787        N794   1.157       .  T
C788        N795   1.157       .  T
C789        N793   1.157       .  T
C790        N796   1.157       .  T
C791        N800   1.157       .  T
C792        N798   1.157       .  T
C801        C802   1.410       .  A
C801        C806   1.411       .  A
C801        C819   1.452       .  S
C802        C803   1.410       .  A
C802        C807   1.499       .  S
C803        C804   1.410       .  A
C803        C808   1.452       .  S
C804        C805   1.420       .  A
C804        C820   1.451       .  S
C805        C806   1.420       .  A
C806        C809   1.451       .  S
C807        C810   1.411       .  A
C807        C814   1.411       .  A
C808        N825   1.157       .  T
C809        N827   1.158       .  T
C810        C811   1.411       .  A
C810        C815   1.452       .  S
C811        C812   1.418       .  A
C811        C817   1.451       .  S
C812        C813   1.418       .  A
C813        C814   1.411       .  A
C813        C816   1.451       .  S
C814        C818   1.452       .  S
C815        N822   1.157       .  T
C816        N823   1.157       .  T
C817        N821   1.157       .  T
C818        N824   1.157       .  T
C819        N828   1.157       .  T
C820        N826   1.158       .  T
C829        C830   1.410       .  A
C829        C834   1.410       .  A
C829        C847   1.451       .  S
C830        C831   1.409       .  A
C830        C835   1.493       .  S
C831        C832   1.409       .  A
C831        C836   1.451       .  S
C832        C833   1.415       .  A
C832        C848   1.451       .  S
C833        C834   1.414       .  A
C834        C837   1.451       .  S
C835        C838   1.409       .  A
C835        C842   1.409       .  A
C836        N853   1.157       .  T
C837        N855   1.157       .  T
C838        C839   1.410       .  A
C838        C843   1.451       .  S
C839        C840   1.416       .  A
C839        C845   1.451       .  S
C840        C841   1.415       .  A
C841        C842   1.409       .  A
C841        C844   1.451       .  S
C842        C846   1.451       .  S
C843        N850   1.157       .  T
C844        N851   1.157       .  T
C845        N849   1.157       .  T
C846        N852   1.157       .  T
C847        N856   1.157       .  T
C848        N854   1.157       .  T
C857        C858   1.411       .  A
C857        C862   1.411       .  A
C857        C875   1.451       .  S
C858        C859   1.411       .  A
C858        C863   1.498       .  S
C859        C860   1.411       .  A
C859        C864   1.451       .  S
C860        C861   1.415       .  A
C860        C876   1.451       .  S
C861        C862   1.416       .  A
C862        C865   1.451       .  S
C863        C866   1.413       .  A
C863        C870   1.412       .  A
C864        N881   1.157       .  T
C865        N883   1.157       .  T
C866        C867   1.411       .  A
C866        C871   1.451       .  S
C867        C868   1.412       .  A
C867        C873   1.451       .  S
C868        C869   1.413       .  A
C869        C870   1.410       .  A
C869        C872   1.451       .  S
C870        C874   1.451       .  S
C871        N878   1.157       .  T
C872        N879   1.157       .  T
C873        N877   1.157       .  T
C874        N880   1.157       .  T
C875        N884   1.157       .  T
C876        N882   1.157       .  T
C885        C886   1.412       .  A
C885        C890   1.411       .  A
C885        C903   1.450       .  S
C886        C887   1.412       .  A
C886        C891   1.498       .  S
C887        C888   1.411       .  A
C887        C892   1.450       .  S
C888        C889   1.412       .  A
C888        C904   1.450       .  S
C889        C890   1.412       .  A
C890        C893   1.451       .  S
C891        C894   1.411       .  A
C891        C898   1.411       .  A
C892        N909   1.157       .  T
C893        N911   1.157       .  T
C894        C895   1.412       .  A
C894        C899   1.450       .  S
C895        C896   1.414       .  A
C895        C901   1.450       .  S
C896        C897   1.414       .  A
C897        C898   1.411       .  A
C897        C900   1.451       .  S
C898        C902   1.451       .  S
C899        N906   1.157       .  T
C900        N907   1.157       .  T
C901        N905   1.157       .  T
C902        N908   1.157       .  T
C903        N912   1.157       .  T
C904        N910   1.157       .  T
C913        C914   1.411       .  A
C913        C918   1.412       .  A
C913        C931   1.451       .  S
C914        C915   1.412   1_545  A
C914        C919   1.502       .  S
C915        C916   1.412       .  A
C915        C920   1.452       .  S
C916        C917   1.418       .  A
C916        C932   1.450       .  S
C917        C918   1.418   1_565  A
C918        C921   1.451       .  S
C919        C922   1.410   1_545  A
C919        C926   1.411       .  A
C920        N937   1.157       .  T
C921        N939   1.157   1_556  T
C922        C923   1.412       .  A
C922        C927   1.452       .  S
C923        C924   1.421   1_565  A
C923        C929   1.451       .  S
C924        C925   1.421       .  A
C925        C926   1.412       .  A
C925        C928   1.450       .  S
C926        C930   1.452       .  S
C927        N934   1.157       .  T
C928        N935   1.158       .  T
C929        N933   1.158       .  T
C930        N936   1.157       .  T
C931        N940   1.157       .  T
C932        N938   1.157       .  T
C941        C942   1.411       .  A
C941        C946   1.411       .  A
C941        C959   1.452   1_465  S
C942        C943   1.412       .  A
C942        C947   1.503       .  S
C943        C944   1.413       .  A
C943        C948   1.452       .  S
C944        C945   1.418       .  A
C944        C960   1.451       .  S
C945        C946   1.419       .  A
C946        C949   1.451   1_455  S
C947        C950   1.412   1_565  A
C947        C954   1.410   1_455  A
C948        N965   1.157       .  T
C949        N967   1.157       .  T
C950        C951   1.413       .  A
C950        C955   1.452       .  S
C951        C952   1.421       .  A
C951        C957   1.451       .  S
C952        C953   1.421   1_455  A
C953        C954   1.412   1_545  A
C953        C956   1.451   1_545  S
C954        C958   1.452       .  S
C955        N962   1.157       .  T
C956        N963   1.158       .  T
C957        N961   1.158       .  T
C958        N964   1.157       .  T
C959        N968   1.157       .  T
C960        N966   1.157       .  T
C969        C970   1.409       .  A
C969        C974   1.410       .  A
C969        C987   1.451       .  S
C970        C971   1.409       .  A
C970        C975   1.494   1_655  S
C971        C972   1.412       .  A
C971        C976   1.451   1_655  S
C972        C973   1.416       .  A
C972        C988   1.450       .  S
C973        C974   1.416       .  A
C974        C977   1.451       .  S
C975        C978   1.411       .  A
C975        C982   1.410       .  A
C976        N993   1.157       .  T
C977        N995   1.157       .  T
C978        C979   1.410       .  A
C978        C983   1.450       .  S
C979        C980   1.412       .  A
C979        C985   1.451       .  S
C980        C981   1.413       .  A
C981        C982   1.410       .  A
C981        C984   1.451       .  S
C982        C986   1.450   1_455  S
C983        N990   1.157       .  T
C984        N991   1.157       .  T
C985        N989   1.157       .  T
C986        N992   1.157       .  T
C987        N996   1.157       .  T
C988        N994   1.157       .  T
C997        C998   1.411       .  A
C997       C1002   1.411       .  A
C997       C1015   1.451       .  S
C998        C999   1.411       .  A
C998       C1003   1.498       .  S
C999       C1000   1.412       .  A
C999       C1004   1.451       .  S
C1000      C1001   1.414       .  A
C1000      C1016   1.450       .  S
C1001      C1002   1.414       .  A
C1002      C1005   1.451       .  S
C1003      C1006   1.411       .  A
C1003      C1010   1.411       .  A
C1004      N1021   1.157       .  T
C1005      N1023   1.157       .  T
C1006      C1007   1.411       .  A
C1006      C1011   1.451       .  S
C1007      C1008   1.415       .  A
C1007      C1013   1.451       .  S
C1008      C1009   1.415       .  A
C1009      C1010   1.412       .  A
C1009      C1012   1.451       .  S
C1010      C1014   1.451       .  S
C1011      N1018   1.157       .  T
C1012      N1019   1.157       .  T
C1013      N1017   1.157       .  T
C1014      N1020   1.157       .  T
C1015      N1024   1.157       .  T
C1016      N1022   1.157       .  T
C1025      C1026   1.411       .  A
C1025      C1030   1.412       .  A
C1025      C1043   1.451       .  S
C1026      C1027   1.410       .  A
C1026      C1031   1.497       .  S
C1027      C1028   1.410       .  A
C1027      C1032   1.451       .  S
C1028      C1029   1.416       .  A
C1028      C1044   1.451       .  S
C1029      C1030   1.416       .  A
C1030      C1033   1.451       .  S
C1031      C1034   1.411       .  A
C1031      C1038   1.411       .  A
C1032      N1049   1.157       .  T
C1033      N1051   1.157       .  T
C1034      C1035   1.411       .  A
C1034      C1039   1.451       .  S
C1035      C1036   1.414       .  A
C1035      C1041   1.451       .  S
C1036      C1037   1.413       .  A
C1037      C1038   1.411       .  A
C1037      C1040   1.451   1_655  S
C1038      C1042   1.450       .  S
C1039      N1046   1.157       .  T
C1040      N1047   1.157       .  T
C1041      N1045   1.157       .  T
C1042      N1048   1.157       .  T
C1043      N1052   1.157       .  T
C1044      N1050   1.157       .  T
C1053      C1054   1.410       .  A
C1053      C1058   1.411       .  A
C1053      C1071   1.451       .  S
C1054      C1055   1.409       .  A
C1054      C1059   1.495       .  S
C1055      C1056   1.411       .  A
C1055      C1060   1.451       .  S
C1056      C1057   1.416       .  A
C1056      C1072   1.451       .  S
C1057      C1058   1.415       .  A
C1058      C1061   1.450       .  S
C1059      C1062   1.409       .  A
C1059      C1066   1.410       .  A
C1060      N1077   1.157       .  T
C1061      N1079   1.157       .  T
C1062      C1063   1.411       .  A
C1062      C1067   1.450       .  S
C1063      C1064   1.416       .  A
C1063      C1069   1.451       .  S
C1064      C1065   1.415       .  A
C1065      C1066   1.410       .  A
C1065      C1068   1.451       .  S
C1066      C1070   1.451       .  S
C1067      N1074   1.157       .  T
C1068      N1075   1.157       .  T
C1069      N1073   1.157       .  T
C1070      N1076   1.157       .  T
C1071      N1080   1.157       .  T
C1072      N1078   1.157       .  T
C1081      C1082   1.409       .  A
C1081      C1086   1.412       .  A
C1081      C1099   1.451       .  S
C1082      C1083   1.410       .  A
C1082      C1087   1.497       .  S
C1083      C1084   1.412       .  A
C1083      C1088   1.451       .  S
C1084      C1085   1.417       .  A
C1084      C1100   1.450       .  S
C1085      C1086   1.418       .  A
C1086      C1089   1.450       .  S
C1087      C1090   1.411       .  A
C1087      C1094   1.410       .  A
C1088      N1105   1.157       .  T
C1089      N1107   1.157       .  T
C1090      C1091   1.412       .  A
C1090      C1095   1.450       .  S
C1091      C1092   1.415       .  A
C1091      C1097   1.451       .  S
C1092      C1093   1.414       .  A
C1093      C1094   1.410       .  A
C1093      C1096   1.451       .  S
C1094      C1098   1.450       .  S
C1095      N1102   1.157       .  T
C1096      N1103   1.157       .  T
C1097      N1101   1.157       .  T
C1098      N1104   1.157       .  T
C1099      N1108   1.157       .  T
C1100      N1106   1.157       .  T
C1109      C1110   1.412       .  A
C1109      C1114   1.414       .  A
C1109      C1127   1.452       .  S
C1110      C1111   1.412       .  A
C1110      C1115   1.504       .  S
C1111      C1112   1.411       .  A
C1111      C1116   1.452       .  S
C1112      C1113   1.418       .  A
C1112      C1128   1.451       .  S
C1113      C1114   1.421       .  A
C1114      C1117   1.451       .  S
C1115      C1118   1.412       .  A
C1115      C1122   1.412       .  A
C1116      N1133   1.157       .  T
C1117      N1135   1.158       .  T
C1118      C1119   1.412       .  A
C1118      C1123   1.451       .  S
C1119      C1120   1.418       .  A
C1119      C1125   1.451   1_565  S
C1120      C1121   1.418       .  A
C1121      C1122   1.412       .  A
C1121      C1124   1.451       .  S
C1122      C1126   1.452       .  S
C1123      N1130   1.157       .  T
C1124      N1131   1.157       .  T
C1125      N1129   1.157       .  T
C1126      N1132   1.157       .  T
C1127      N1136   1.157       .  T
C1128      N1134   1.157       .  T
C1137      C1138   1.411       .  A
C1137      C1142   1.413       .  A
C1137      C1155   1.451       .  S
C1138      C1139   1.411       .  A
C1138      C1143   1.501       .  S
C1139      C1140   1.412       .  A
C1139      C1144   1.450       .  S
C1140      C1141   1.415       .  A
C1140      C1156   1.450       .  S
C1141      C1142   1.415       .  A
C1142      C1145   1.451       .  S
C1143      C1146   1.412       .  A
C1143      C1150   1.411       .  A
C1144      N1161   1.157       .  T
C1145      N1163   1.157       .  T
C1146      C1147   1.413       .  A
C1146      C1151   1.450       .  S
C1147      C1148   1.414       .  A
C1147      C1153   1.450       .  S
C1148      C1149   1.415       .  A
C1149      C1150   1.412       .  A
C1149      C1152   1.451       .  S
C1150      C1154   1.450       .  S
C1151      N1158   1.157       .  T
C1152      N1159   1.157       .  T
C1153      N1157   1.157       .  T
C1154      N1160   1.157       .  T
C1155      N1164   1.157       .  T
C1156      N1162   1.157       .  T
C1165      C1166   1.410       .  A
C1165      C1170   1.409       .  A
C1165      C1183   1.452       .  S
C1166      C1167   1.411       .  A
C1166      C1171   1.499       .  S
C1167      C1168   1.412       .  A
C1167      C1172   1.452       .  S
C1168      C1169   1.421       .  A
C1168      C1184   1.451       .  S
C1169      C1170   1.420       .  A
C1170      C1173   1.451       .  S
C1171      C1174   1.412       .  A
C1171      C1178   1.411       .  A
C1172      N1189   1.157       .  T
C1173      N1191   1.157       .  T
C1174      C1175   1.410       .  A
C1174      C1179   1.452       .  S
C1175      C1176   1.417       .  A
C1175      C1181   1.451       .  S
C1176      C1177   1.418       .  A
C1177      C1178   1.410       .  A
C1177      C1180   1.451       .  S
C1178      C1182   1.451       .  S
C1179      N1186   1.157       .  T
C1180      N1187   1.157       .  T
C1181      N1185   1.157       .  T
C1182      N1188   1.157       .  T
C1183      N1192   1.157       .  T
C1184      N1190   1.158       .  T
C1193      C1194   1.410       .  A
C1193      C1198   1.412       .  A
C1193      C1211   1.450       .  S
C1194      C1195   1.410       .  A
C1194      C1199   1.496       .  S
C1195      C1196   1.410       .  A
C1195      C1200   1.451       .  S
C1196      C1197   1.415       .  A
C1196      C1212   1.451       .  S
C1197      C1198   1.416       .  A
C1198      C1201   1.451       .  S
C1199      C1202   1.411       .  A
C1199      C1206   1.410       .  A
C1200      N1217   1.157       .  T
C1201      N1219   1.157       .  T
C1202      C1203   1.411       .  A
C1202      C1207   1.451       .  S
C1203      C1204   1.414       .  A
C1203      C1209   1.450       .  S
C1204      C1205   1.416       .  A
C1205      C1206   1.411       .  A
C1205      C1208   1.451       .  S
C1206      C1210   1.451       .  S
C1207      N1214   1.157       .  T
C1208      N1215   1.157       .  T
C1209      N1213   1.157       .  T
C1210      N1216   1.157       .  T
C1211      N1220   1.157       .  T
C1212      N1218   1.157       .  T
C1221      C1222   1.410       .  A
C1221      C1226   1.409       .  A
C1221      C1239   1.451       .  S
C1222      C1223   1.410       .  A
C1222      C1227   1.492       .  S
C1223      C1224   1.409       .  A
C1223      C1228   1.451       .  S
C1224      C1225   1.414       .  A
C1224      C1240   1.451       .  S
C1225      C1226   1.414       .  A
C1226      C1229   1.451       .  S
C1227      C1230   1.410       .  A
C1227      C1234   1.410       .  A
C1228      N1245   1.157       .  T
C1229      N1247   1.157       .  T
C1230      C1231   1.409       .  A
C1230      C1235   1.451       .  S
C1231      C1232   1.415       .  A
C1231      C1237   1.451       .  S
C1232      C1233   1.414       .  A
C1233      C1234   1.410       .  A
C1233      C1236   1.451       .  S
C1234      C1238   1.451       .  S
C1235      N1242   1.157       .  T
C1236      N1243   1.157       .  T
C1237      N1241   1.157       .  T
C1238      N1244   1.157       .  T
C1239      N1248   1.157       .  T
C1240      N1246   1.157       .  T
