geometry optimzed in LAMMPS
_audit_creation_date              2020-12-01 
_audit_creation_method            'lammps2cif' 
_symmetry_space_group_name_H-M    'P1' 
_symmetry_Int_Tables_number       1 
_symmetry_cell_setting            triclinic 
loop_ 
_symmetry_equiv_pos_as_xyz 
  x,y,z 
_cell_length_a                    26.42721516 
_cell_length_b                    26.251307205715488 
_cell_length_c                    25.433238890302142 
_cell_angle_alpha                 96.26874736964602 
_cell_angle_beta                  86.03322030201231 
_cell_angle_gamma                 93.08010194111395 
loop_ 
_atom_site_label 
_atom_site_type_symbol 
_atom_site_fract_x 
_atom_site_fract_y 
_atom_site_fract_z 
_atom_site_charge 
C1          C  0.90398706  0.81191729  0.88584029     0.02100
C2          C  0.93284414  0.83914350  0.84859483    -0.14100
C3          C  0.91605365  0.88488821  0.83353159    -0.00400
C4          C  0.87027582  0.90397631  0.85664168    -0.12600
C5          C  0.84015203  0.87684082  0.89276009     0.02100
C6          C  0.85715329  0.83068998  0.90720923    -0.12000
H7          H  0.96795885  0.82410243  0.83023037     0.07700
H8          H  0.85615502  0.93815168  0.84347916     0.05200
H9          H  0.83425812  0.80991559  0.93556400     0.05000
C10         C  0.84457048  0.73921585  0.35847963     0.02100
C11         C  0.79988917  0.71553690  0.38014020    -0.14100
C12         C  0.77820816  0.67029143  0.35441710    -0.00400
C13         C  0.80055311  0.64968313  0.30541130    -0.12600
C14         C  0.84464543  0.67274163  0.28277445     0.02100
C15         C  0.86662063  0.71719432  0.30984714    -0.12000
H16         H  0.78222614  0.73180221  0.41742544     0.07700
H17         H  0.78312836  0.61584413  0.28438328     0.05200
H18         H  0.90186650  0.73380496  0.29354772     0.05000
O19         O  0.94688468  0.43520036  0.92862620    -0.81900
O20         O  0.12617488  0.51529279  0.04536551    -0.66600
O21         O  0.99155736  0.46636792  0.01840513    -1.13200
C22         C  0.98208715  0.63458869  0.96429639     1.04900
O23         O  0.08876651  0.58048921  0.09089749    -0.79800
O24         O  0.99688321  0.61796538  0.08582465    -0.67400
Ni25       Ni  0.97736852  0.40243759  0.98057189     1.34900
C26         C  0.95560132  0.59170806  0.09124765     0.83700
O27         O  0.07570734  0.42253323  0.05452629    -0.80400
O28         O  0.00928718  0.36876598  0.03124746    -0.90700
C29         C  0.12829310  0.55533614  0.07838456     0.83300
O30         O  0.03679436  0.39598651  0.93464078    -0.68900
O31         O  0.02281287  0.64519432  0.98853683    -0.88100
C32         C  0.07699283  0.42360283  0.92820101     0.84100
C33         C  0.05119706  0.37872929  0.05341766     1.05700
H34         H  0.05818725  0.54954580  0.96720425     0.37500
O35         O  0.04092486  0.54808949  0.00179194    -1.10800
O36         O  0.94362768  0.55256882  0.05952874    -0.67500
Ni37       Ni  0.97275877  0.52722317  0.98989988     1.26300
O38         O  0.08807637  0.46330150  0.95929490    -0.67700
O39         O  0.95765016  0.59081069  0.96292506    -0.80000
C40         C  0.90591926  0.45751276  0.94133828     0.83500
O41         O  0.90659798  0.49861575  0.97293282    -0.67200
Ni42       Ni  0.05589941  0.61200135  0.03903176     1.27400
Ni43       Ni  0.05987114  0.48705060  0.02941758     1.26100
H44         H  0.97424690  0.46513197  0.05298558     0.38000
C45         C  0.66655886  0.28696010  0.84194312     0.02100
C46         C  0.64276865  0.31058364  0.80377835    -0.14100
C47         C  0.66183578  0.35828538  0.78893265    -0.00400
C48         C  0.70421085  0.38244734  0.81272294    -0.12600
C49         C  0.72847002  0.35886408  0.85003655     0.02100
C50         C  0.71011792  0.31075535  0.86383488    -0.12000
H51         H  0.60875498  0.29273816  0.78695721     0.07700
H52         H  0.71891178  0.41932582  0.80141466     0.05200
H53         H  0.72796665  0.29332799  0.89412260     0.05000
O54         O  0.42950147  0.08099526  0.07463507    -0.81900
O55         O  0.63043550  0.99227578  0.97111553    -0.66600
O56         O  0.49643476  0.04303049  0.99138010    -1.13200
C57         C  0.45659885  0.87746884  0.04617510     1.04900
O58         O  0.60085981  0.92164894  0.92702608    -0.79800
O59         O  0.50179531  0.90024373  0.91593621    -0.67400
Ni60       Ni  0.48582390  0.10732130  0.03243793     1.34900
C61         C  0.46282169  0.92566582  0.91248352     0.83700
O62         O  0.59105117  0.08013934  0.95113459    -0.80400
O63         O  0.53958418  0.13989329  0.99176027    -0.90700
C64         C  0.63809345  0.94940046  0.94447967     0.83300
O65         O  0.52793808  0.09803050  0.08842952    -0.68900
O66         O  0.49449369  0.86360291  0.01507483    -0.88100
C67         C  0.56785938  0.07370045  0.09027048     0.84100
C68         C  0.57605996  0.12589114  0.95873380     1.05700
H69         H  0.54620740  0.95895883  0.04554068     0.37500
O70         O  0.53420621  0.96041505  0.01069501    -1.10800
O71         O  0.44531597  0.95681989  0.95030957    -0.67500
Ni72       Ni  0.46605035  0.98324036  0.01994431     1.26300
O73         O  0.58681412  0.04588268  0.05058187    -0.67700
O74         O  0.43929756  0.92240275  0.05022910    -0.80000
C75         C  0.39214756  0.05392860  0.05650354     0.83500
O76         O  0.39959114  0.01099240  0.02961278    -0.67200
Ni77       Ni  0.54611532  0.89546947  0.97149930     1.27400
Ni78       Ni  0.56438978  0.01981734  0.98147672     1.26100
H79         H  0.48412907  0.04533019  0.95675081     0.38000
C80         C  0.13182738  0.19938959  0.12569185     0.02100
C81         C  0.10517524  0.17552080  0.16677284    -0.14100
C82         C  0.12171213  0.13030924  0.18330424    -0.00400
C83         C  0.16524229  0.10818387  0.15755795    -0.12600
C84         C  0.19329289  0.13204765  0.11732206     0.02100
C85         C  0.17643049  0.17778355  0.10162468    -0.12000
H86         H  0.07170491  0.19271662  0.18670843     0.07700
H87         H  0.17932862  0.07426227  0.17126795     0.05200
H88         H  0.19782845  0.19616586  0.07044088     0.05000
C89         C  0.36177284  0.81040752  0.64088086     0.02100
C90         C  0.32396285  0.83528538  0.61920510    -0.14100
C91         C  0.30434030  0.88079113  0.64570240    -0.00400
C92         C  0.32440988  0.90145853  0.69435593    -0.12600
C93         C  0.36387287  0.87713496  0.71539670     0.02100
C94         C  0.38110128  0.83121449  0.68858415    -0.12000
H95         H  0.30858953  0.81802345  0.58267824     0.07700
H96         H  0.31048476  0.93680943  0.71483405     0.05200
H97         H  0.40990993  0.81096107  0.70514940     0.05000
O98         O  0.08676242  0.06344768  0.41047432    -0.81900
O99         O  0.01119226  0.00450918  0.63068851    -0.66600
O100        O  0.05073502  0.99549474  0.48325738    -1.13200
C101        C  0.88469860  0.05181128  0.46720435     1.04900
O102        O  0.93669887  0.96475801  0.61431279    -0.79800
O103        O  0.90840545  0.93877079  0.51536167    -0.67400
Ni104      Ni  0.11514985  0.02193637  0.45800510     1.34900
C105        C  0.92848811  0.92671797  0.46921865     0.83700
O106        O  0.09578104  0.97327803  0.57502934    -0.80400
O107        O  0.14913893  0.98255931  0.50348381    -0.90700
C108        C  0.97275342  0.97701782  0.64459868     0.83300
O109        O  0.12121744  0.08169898  0.50712400    -0.68900
O110        O  0.87370043  0.03431633  0.51177295    -0.88100
C111        C  0.09849578  0.09663142  0.55118498     0.84100
C112        C  0.13903029  0.96798201  0.54957721     1.05700
H113        H  0.97305833  0.06531165  0.54995316     0.37500
O114        O  0.97282377  0.02927407  0.53737490    -1.10800
O115        O  0.96051223  0.95612235  0.44582847    -0.67500
Ni116      Ni  0.99076586  0.02419609  0.46296729     1.26300
O117        O  0.06298284  0.07004234  0.57321736    -0.67700
O118        O  0.92948063  0.05259290  0.44488844    -0.80000
C119        C  0.05333979  0.04980547  0.37753183     0.83500
O120        O  0.01440981  0.02212937  0.38987914    -0.67200
Ni121      Ni  0.90867734  0.00083453  0.56166020     1.27400
Ni122      Ni  0.03361147  0.00140365  0.55749623     1.26100
H123        H  0.04961028  0.95934534  0.47111099     0.38000
C124        C  0.65414350  0.18799514  0.36485083     0.02100
C125        C  0.63636532  0.16381347  0.31741827    -0.14100
C126        C  0.65859234  0.12003973  0.29090963    -0.00400
C127        C  0.70000025  0.10005532  0.31288033    -0.12600
C128        C  0.71740495  0.12296422  0.36185858     0.02100
C129        C  0.69417905  0.16703808  0.38711550    -0.12000
H130        H  0.60514109  0.17988752  0.30035092     0.07700
H131        H  0.71739007  0.06616183  0.29295760     0.05200
H132        H  0.70864479  0.18634105  0.42325268     0.05000
C133        C  0.18554524  0.28430972  0.65787765     0.02100
C134        C  0.23244995  0.30531719  0.63819193    -0.14100
C135        C  0.25622995  0.34873937  0.66565874    -0.00400
C136        C  0.23217764  0.37106477  0.71316022    -0.12600
C137        C  0.18632859  0.34992873  0.73389696     0.02100
C138        C  0.16283239  0.30739841  0.70543053    -0.12000
H139        H  0.25128291  0.28676150  0.60261054     0.07700
H140        H  0.24948951  0.40456448  0.73478764     0.05200
H141        H  0.12631209  0.29240450  0.72042578     0.05000
C142        C  0.37166101  0.71816097  0.16976528     0.02100
C143        C  0.39611278  0.69671664  0.20921586    -0.14100
C144        C  0.37766838  0.64967003  0.22673800    -0.00400
C145        C  0.33493300  0.62434991  0.20443297    -0.12600
C146        C  0.31042511  0.64571071  0.16582189     0.02100
C147        C  0.32828999  0.69268624  0.14902666    -0.12000
H148        H  0.43006415  0.71574139  0.22502813     0.07700
H149        H  0.32021549  0.58821464  0.21764102     0.05200
H150        H  0.30943640  0.70837693  0.11827571     0.05000
O151        O  0.45371025  0.58777948  0.59942951    -0.81900
O152        O  0.54491705  0.38982519  0.49297032    -0.66600
O153        O  0.53264324  0.52913795  0.55195619    -1.13200
C154        C  0.47148623  0.54980574  0.38452252     1.04900
O155        O  0.58341911  0.41840419  0.42141329    -0.79800
O156        O  0.59204135  0.51562793  0.40262413    -0.67400
Ni157      Ni  0.50468357  0.54652959  0.62176994     1.34900
C158        C  0.59814167  0.55864560  0.42980034     0.83700
O159        O  0.56701665  0.44002997  0.58691546    -0.80400
O160        O  0.55314475  0.50638924  0.64933033    -0.90700
C161        C  0.57146026  0.38194757  0.44948735     0.83300
O162        O  0.45513382  0.49149716  0.62555680    -0.68900
O163        O  0.49619226  0.51012409  0.36756655    -0.88100
C164        C  0.44420300  0.45126477  0.59537624     0.84100
C165        C  0.57125444  0.46278330  0.63359555     1.05700
H166        H  0.47284303  0.46484727  0.46427157     0.37500
O167        O  0.50677958  0.48039240  0.46574611    -1.10800
O168        O  0.56526868  0.57653030  0.46510694    -0.67500
Ni169      Ni  0.50012828  0.55026773  0.49354911     1.26300
O170        O  0.47073711  0.43676404  0.55321275    -0.67700
O171        O  0.46850759  0.56872828  0.43303157    -0.80000
C172        C  0.46017338  0.62333476  0.56906856     0.83500
O173        O  0.48954219  0.61796343  0.52732106    -0.67200
Ni174      Ni  0.53853525  0.46476069  0.39736398     1.27400
Ni175      Ni  0.53733369  0.45888218  0.52529544     1.26100
H176        H  0.56692386  0.54391729  0.55142671     0.38000
C177        C  0.41237069  0.65197275  0.31654563    -0.14400
C178        C  0.40317518  0.62531737  0.26695088     0.07800
C179        C  0.41572027  0.57373589  0.25673071    -0.14400
C180        C  0.43728365  0.54922820  0.29514521    -0.14400
C181        C  0.44620871  0.57552586  0.34505873     0.07800
C182        C  0.43331821  0.62715678  0.35547737    -0.14400
H183        H  0.40245451  0.69162145  0.32545010     0.11700
H184        H  0.40895025  0.55239657  0.21875366     0.11700
H185        H  0.44682864  0.50951707  0.28574885     0.11700
H186        H  0.44014079  0.64856903  0.39338882     0.11700
C187        C  0.31993381  0.37163110  0.59169587    -0.14400
C188        C  0.30662061  0.37049780  0.64623332     0.07800
C189        C  0.34134004  0.39233696  0.68279552    -0.14400
C190        C  0.38624257  0.41750944  0.66574577    -0.14400
C191        C  0.39860128  0.42031149  0.61158056     0.07800
C192        C  0.36581597  0.39594549  0.57450714    -0.14400
H193        H  0.29418278  0.35539380  0.56235720     0.11700
H194        H  0.33370015  0.39055226  0.72492940     0.11700
H195        H  0.41137225  0.43515271  0.69513492     0.11700
H196        H  0.37459355  0.39766338  0.53249072     0.11700
C197        C  0.60241744  0.32011340  0.37549161    -0.14400
C198        C  0.59094604  0.33106347  0.43015697     0.07800
C199        C  0.60043870  0.29441980  0.46421711    -0.14400
C200        C  0.62154278  0.24777321  0.44349841    -0.14400
C201        C  0.63265147  0.23708591  0.38850610     0.07800
C202        C  0.62295746  0.27396948  0.35501731    -0.14400
H203        H  0.59554863  0.34751147  0.34817099     0.11700
H204        H  0.59242908  0.30218673  0.50659060     0.11700
H205        H  0.62865461  0.21992859  0.47022330     0.11700
H206        H  0.63195745  0.26748073  0.31269639     0.11700
C207        C  0.14073725  0.18422610  0.54905654    -0.14400
C208        C  0.11609089  0.14660958  0.57838553     0.07800
C209        C  0.11281289  0.15537306  0.63389432    -0.14400
C210        C  0.13523397  0.19997272  0.65953821    -0.14400
C211        C  0.16077783  0.23732633  0.63027596     0.07800
C212        C  0.16254214  0.22916024  0.57466318    -0.14400
H213        H  0.14362725  0.17862633  0.50614465     0.11700
H214        H  0.09476935  0.12676888  0.65754029     0.11700
H215        H  0.13378595  0.20440592  0.70242520     0.11700
H216        H  0.18091495  0.25744704  0.55086859     0.11700
C217        C  0.79740171  0.08506163  0.46855362    -0.14400
C218        C  0.84258331  0.07065729  0.43972570     0.07800
C219        C  0.84563503  0.07142405  0.38429040    -0.14400
C220        C  0.80452822  0.08670576  0.35846899    -0.14400
C221        C  0.75978746  0.10216684  0.38764066     0.07800
C222        C  0.75671362  0.10070415  0.44293187    -0.14400
H223        H  0.79351840  0.08449484  0.51116108     0.11700
H224        H  0.87959697  0.05964946  0.36081874     0.11700
H225        H  0.80818733  0.08761706  0.31591164     0.11700
H226        H  0.72258827  0.11170808  0.46656103     0.11700
C227        C  0.22022210  0.92396337  0.65335325    -0.14400
C228        C  0.26263477  0.90531047  0.62202359     0.07800
C229        C  0.26359135  0.90730703  0.56685939    -0.14400
C230        C  0.22329278  0.92687715  0.54362072    -0.14400
C231        C  0.18051934  0.94490551  0.57471526     0.07800
C232        C  0.17948891  0.94319364  0.62995307    -0.14400
H233        H  0.21801263  0.92260184  0.69584506     0.11700
H234        H  0.29578832  0.89381764  0.54147088     0.11700
H235        H  0.22566522  0.92776357  0.50104430     0.11700
H236        H  0.14744512  0.95728458  0.65519082     0.11700
C237        C  0.41453511  0.75862314  0.57119924    -0.14400
C238        C  0.38046513  0.76101842  0.61616254     0.07800
C239        C  0.37024284  0.71737894  0.64284280    -0.14400
C240        C  0.39508918  0.67243365  0.62623953    -0.14400
C241        C  0.43107844  0.67019351  0.58268439     0.07800
C242        C  0.43972800  0.71339136  0.55446865    -0.14400
H243        H  0.42339110  0.79237379  0.55071011     0.11700
H244        H  0.34440802  0.71880116  0.67791285     0.11700
H245        H  0.38708234  0.63983874  0.64866841     0.11700
H246        H  0.46712295  0.71278865  0.52074083     0.11700
C247        C  0.08453559  0.14240188  0.27666362    -0.14400
C248        C  0.09645682  0.10921372  0.23079034     0.07800
C249        C  0.08737169  0.05604846  0.23218955    -0.14400
C250        C  0.06885877  0.03641680  0.27927851    -0.14400
C251        C  0.06001508  0.06967925  0.32562393     0.07800
C252        C  0.06694139  0.12276131  0.32370372    -0.14400
H253        H  0.09161100  0.18345692  0.27704001     0.11700
H254        H  0.09596499  0.02969404  0.19729914     0.11700
H255        H  0.06451920  0.99527392  0.28034982     0.11700
H256        H  0.06090599  0.14892389  0.35933806     0.11700
C257        C  0.46401827  0.79900812  0.09138319    -0.14400
C258        C  0.43415165  0.83907179  0.08070765     0.07800
C259        C  0.38458549  0.84197396  0.10428128    -0.14400
C260        C  0.36458265  0.80382676  0.13550240    -0.14400
C261        C  0.39431588  0.76309532  0.14468701     0.07800
C262        C  0.44448032  0.76177071  0.12324897    -0.14400
H263        H  0.50274066  0.79614071  0.07476094     0.11700
H264        H  0.36095275  0.87271346  0.09734413     0.11700
H265        H  0.32560332  0.80544016  0.15159308     0.11700
H266        H  0.46789697  0.73048529  0.12909763     0.11700
C267        C  0.64556451  0.07763686  0.14403270    -0.14400
C268        C  0.59246775  0.07784971  0.14146728     0.07800
C269        C  0.56209865  0.08408572  0.18895100    -0.14400
C270        C  0.58403729  0.09303409  0.23761429    -0.14400
C271        C  0.63709835  0.09736811  0.24032865     0.07800
C272        C  0.66778264  0.08774571  0.19315622    -0.14400
H273        H  0.66987827  0.07243126  0.10797953     0.11700
H274        H  0.52110640  0.08317414  0.18839389     0.11700
H275        H  0.55932828  0.09923936  0.27329322     0.11700
H276        H  0.70875195  0.09099996  0.19394593     0.11700
C277        C  0.38427034  0.92306317  0.86042127    -0.14400
C278        C  0.43707287  0.91860865  0.86176739     0.07800
C279        C  0.46551459  0.90606731  0.81387872    -0.14400
C280        C  0.44174820  0.89633211  0.76618412    -0.14400
C281        C  0.38863088  0.89770712  0.76493294     0.07800
C282        C  0.36018955  0.91237128  0.81245352    -0.14400
H283        H  0.36137916  0.93274102  0.89676080     0.11700
H284        H  0.50629923  0.90326322  0.81335313     0.11700
H285        H  0.46490882  0.88593267  0.73017550     0.11700
H286        H  0.31924552  0.91325246  0.81291311     0.11700
C287        C  0.29632858  0.04095679  0.06274726    -0.14400
C288        C  0.34028479  0.07317869  0.06863693     0.07800
C289        C  0.33474020  0.12537552  0.08656656    -0.14400
C290        C  0.28679194  0.14464256  0.09987992    -0.14400
C291        C  0.24307360  0.11214636  0.09636921     0.07800
C292        C  0.24811785  0.06017195  0.07719201    -0.14400
H293        H  0.29929820  0.00077154  0.04843645     0.11700
H294        H  0.36768938  0.15150260  0.09080268     0.11700
H295        H  0.28398198  0.18469069  0.11491758     0.11700
H296        H  0.21479655  0.03441613  0.07402842     0.11700
C297        C  0.64929828  0.16113456  0.90265787    -0.14400
C298        C  0.59979848  0.16506940  0.92620058     0.07800
C299        C  0.57135155  0.20668125  0.91716966    -0.14400
C300        C  0.59226828  0.24440920  0.88671188    -0.14400
C301        C  0.64240218  0.24190907  0.86527791     0.07800
C302        C  0.67071076  0.19972513  0.87292904    -0.14400
H303        H  0.67179045  0.12915405  0.90847911     0.11700
H304        H  0.53272375  0.21025958  0.93388856     0.11700
H305        H  0.57000011  0.27688327  0.88197265     0.11700
H306        H  0.70963917  0.19729687  0.85682877     0.11700
C307        C  0.61218442  0.38599827  0.65980668    -0.14400
C308        C  0.59655222  0.43652677  0.67251477     0.07800
C309        C  0.60185817  0.46046787  0.72423556    -0.14400
C310        C  0.62234025  0.43458078  0.76221563    -0.14400
C311        C  0.63748484  0.38412395  0.74946971     0.07800
C312        C  0.63222973  0.35992476  0.69811565    -0.14400
H313        H  0.60836174  0.36634091  0.62047940     0.11700
H314        H  0.58984061  0.49913405  0.73561048     0.11700
H315        H  0.62622291  0.45385156  0.80173172     0.11700
H316        H  0.64442116  0.32120293  0.68749112     0.11700
C317        C  0.22326753  0.55822433  0.08122586    -0.14400
C318        C  0.17562583  0.57422374  0.10279036     0.07800
C319        C  0.17318484  0.61236258  0.14619505    -0.14400
C320        C  0.21730444  0.63505950  0.16678213    -0.14400
C321        C  0.26460614  0.61994817  0.14455852     0.07800
C322        C  0.26768897  0.58111467  0.10208942    -0.14400
H323        H  0.22614829  0.52929705  0.04750882     0.11700
H324        H  0.13704246  0.62543392  0.16380344     0.11700
H325        H  0.21461331  0.66487828  0.19972306     0.11700
H326        H  0.30433117  0.56928643  0.08467491     0.11700
C327        C  0.13501074  0.44178988  0.84919422    -0.14400
C328        C  0.11163318  0.40697319  0.88246680     0.07800
C329        C  0.11704980  0.35420403  0.86893624    -0.14400
C330        C  0.14297651  0.33619214  0.82170239    -0.14400
C331        C  0.16354173  0.37048299  0.78639211     0.07800
C332        C  0.16071274  0.42361122  0.80122433    -0.14400
H333        H  0.13109295  0.48265424  0.85888727     0.11700
H334        H  0.09999607  0.32667313  0.89447829     0.11700
H335        H  0.14599605  0.29518177  0.81222211     0.11700
H336        H  0.17641211  0.45091697  0.77480274     0.11700
C337        C  0.04027534  0.29315614  0.08775475    -0.14400
C338        C  0.07237663  0.33563754  0.07663432     0.07800
C339        C  0.12477172  0.33336093  0.08219542    -0.14400
C340        C  0.14453427  0.28907544  0.09774921    -0.14400
C341        C  0.11216224  0.24655479  0.10842247     0.07800
C342        C  0.05985064  0.24935678  0.10339062    -0.14400
H343        H  0.99979120  0.29332710  0.08347755     0.11700
H344        H  0.15056056  0.36511040  0.07304025     0.11700
H345        H  0.18500177  0.28814946  0.10166982     0.11700
H346        H  0.03395897  0.21709974  0.11058978     0.11700
C347        C  0.81496662  0.46045151  0.91936311    -0.14400
C348        C  0.85918580  0.43339275  0.91981951     0.07800
C349        C  0.85949991  0.38163257  0.89840073    -0.14400
C350        C  0.81677032  0.35746115  0.87636089    -0.14400
C351        C  0.77293334  0.38460921  0.87484149     0.07800
C352        C  0.77210154  0.43622589  0.89653930    -0.14400
H353        H  0.81385660  0.50025278  0.93573635     0.11700
H354        H  0.89295724  0.35956755  0.89860959     0.11700
H355        H  0.81823491  0.31775683  0.85961992     0.11700
H356        H  0.73822904  0.45758248  0.89602810     0.11700
C357        C  0.87318726  0.59695170  0.21967927    -0.14400
C358        C  0.86822434  0.65032909  0.23110659     0.07800
C359        C  0.88749923  0.68269501  0.19332024    -0.14400
C360        C  0.91354626  0.66269530  0.14671032    -0.14400
C361        C  0.92057498  0.60980032  0.13635438     0.07800
C362        C  0.89905502  0.57678984  0.17248604    -0.14400
H363        H  0.85890393  0.57104140  0.24816937     0.11700
H364        H  0.88323263  0.72373002  0.20027320     0.11700
H365        H  0.92946978  0.68884482  0.11911088     0.11700
H366        H  0.90450904  0.53595311  0.16555692     0.11700
C367        C  0.88760757  0.83831366  0.46922687    -0.14400
C368        C  0.91161224  0.87694427  0.44090948     0.07800
C369        C  0.91491099  0.86933585  0.38527509    -0.14400
C370        C  0.89337761  0.82476473  0.35858015    -0.14400
C371        C  0.86862055  0.78631139  0.38686496     0.07800
C372        C  0.86680605  0.79345420  0.44260687    -0.14400
H373        H  0.88451211  0.84293692  0.51215542     0.11700
H374        H  0.93241869  0.89872812  0.36231273     0.11700
H375        H  0.89493280  0.82120847  0.31570956     0.11700
H376        H  0.84931615  0.76435918  0.46590448     0.11700
C377        C  0.73150056  0.58930039  0.37621742    -0.14400
C378        C  0.73329567  0.64304740  0.37901015     0.07800
C379        C  0.69172284  0.66958646  0.40404644    -0.14400
C380        C  0.64830380  0.64253276  0.42345453    -0.14400
C381        C  0.64581580  0.58861302  0.41780547     0.07800
C382        C  0.68837249  0.56249853  0.39513068    -0.14400
H383        H  0.76336747  0.56775541  0.35862921     0.11700
H384        H  0.69198693  0.71104598  0.40677851     0.11700
H385        H  0.61593588  0.66359537  0.44052335     0.11700
H386        H  0.68792662  0.52096404  0.39089539     0.11700
C387        C  0.97510540  0.76341990  0.91257286    -0.14400
C388        C  0.92363659  0.76454906  0.90261748     0.07800
C389        C  0.89178415  0.72067833  0.90939126    -0.14400
C390        C  0.91098553  0.67706663  0.92696421    -0.14400
C391        C  0.96225580  0.67683037  0.93850935     0.07800
C392        C  0.99411819  0.72026917  0.93020789    -0.14400
H393        H  0.00055504  0.79664357  0.90823503     0.11700
H394        H  0.85205087  0.72021696  0.90134732     0.11700
H395        H  0.88541382  0.64433850  0.93322062     0.11700
H396        H  0.03381680  0.72152210  0.93859853     0.11700
C397        C  0.74633331  0.86097352  0.90639933    -0.14400
C398        C  0.78902628  0.89487862  0.91102096     0.07800
C399        C  0.78198387  0.94693166  0.92829734    -0.14400
C400        C  0.73304833  0.96486158  0.93978739    -0.14400
C401        C  0.69024572  0.93120998  0.93318830     0.07800
C402        C  0.69749872  0.87898541  0.91702811    -0.14400
H403        H  0.75066991  0.82082225  0.89265663     0.11700
H404        H  0.81439645  0.97380732  0.93229452     0.11700
H405        H  0.72868175  0.00515518  0.95278400     0.11700
H406        H  0.66530651  0.85192138  0.91243292     0.11700
C407        C  0.95259927  0.87837607  0.74042052    -0.14400
C408        C  0.94189364  0.90891491  0.78829703     0.07800
C409        C  0.94919845  0.96256850  0.78990517    -0.14400
C410        C  0.96375147  0.98532644  0.74349859    -0.14400
C411        C  0.97034437  0.95460450  0.69509269     0.07800
C412        C  0.96616127  0.90108580  0.69413819    -0.14400
H413        H  0.94672011  0.83705243  0.73792368     0.11700
H414        H  0.94123713  0.98683715  0.82647646     0.11700
H415        H  0.96635028  0.02675338  0.74473419     0.11700
H416        H  0.97079209  0.87691452  0.65693340     0.11700
loop_ 
_geom_bond_atom_site_label_1 
_geom_bond_atom_site_label_2 
_geom_bond_distance 
_geom_bond_site_symmetry_2 
_ccdc_geom_bond_type 
C1            C2   1.407       .  A
C1            C6   1.409       .  A
C1          C388   1.488       .  S
C2            C3   1.402       .  A
C2            H7   1.084       .  S
C3            C4   1.401       .  A
C3          C408   1.480       .  S
C4            C5   1.402       .  A
C4            H8   1.084       .  S
C5            C6   1.408       .  A
C5          C398   1.483       .  S
C6            H9   1.083       .  S
C10          C11   1.411       .  A
C10          C15   1.409       .  A
C10         C371   1.496       .  S
C11          C12   1.406       .  A
C11          H16   1.082       .  S
C12          C13   1.407       .  A
C12         C378   1.488       .  S
C13          C14   1.401       .  A
C13          H17   1.083       .  S
C14          C15   1.407       .  A
C14         C358   1.489       .  S
C15          H18   1.083       .  S
O19         Ni25   1.898       .  S
O19          C40   1.264       .  A
O20         Ni43   1.918       .  S
O20          C29   1.273       .  A
O21         Ni25   1.874   1_554  S
O21         Ni43   1.888   1_655  S
O21         Ni37   1.927   1_554  S
O21          H44   0.966       .  S
C22         C391   1.484       .  S
C22          O39   1.286       .  A
C22          O31   1.280   1_655  A
O23         Ni42   1.911       .  S
O23          C29   1.269       .  A
O24         Ni42   1.898   1_655  S
O24          C26   1.266       .  A
Ni25         O28   1.906   1_656  S
Ni25         O30   1.895   1_655  S
C26         C361   1.476       .  S
C26          O36   1.275       .  A
O27         Ni43   1.950       .  S
O27          C33   1.288       .  A
O28          C33   1.279       .  A
C29         C318   1.473       .  S
O30          C32   1.265       .  A
O31         Ni42   1.912   1_556  S
C32         C328   1.472       .  S
C32          O38   1.271       .  A
C33         C338   1.484       .  S
H34          O35   0.966   1_556  S
O35         Ni43   1.922       .  S
O35         Ni37   1.889   1_454  S
O35         Ni42   1.871       .  S
O36         Ni37   1.944   1_554  S
Ni37         O41   1.923       .  S
Ni37         O39   1.943       .  S
O38         Ni43   1.936   1_556  S
C40         C348   1.470       .  S
C40          O41   1.273       .  A
C45          C46   1.407       .  A
C45          C50   1.400       .  A
C45         C301   1.476       .  S
C46          C47   1.405       .  A
C46          H51   1.084       .  S
C47          C48   1.399       .  A
C47         C311   1.472       .  S
C48          C49   1.396       .  A
C48          H52   1.084       .  S
C49          C50   1.400       .  A
C49         C351   1.470       .  S
C50          H53   1.084       .  S
O54         Ni60   1.917       .  S
O54          C75   1.268       .  A
O55         Ni78   1.915   1_565  S
O55          C64   1.267       .  A
O56         Ni60   1.909   1_556  S
O56         Ni78   1.919       .  S
O56         Ni72   1.915   1_546  S
O56          H79   0.969       .  S
C57         C258   1.482       .  S
C57          O74   1.279       .  A
C57          O66   1.276       .  A
O58         Ni77   1.919       .  S
O58          C64   1.268       .  A
O59         Ni77   1.915       .  S
O59          C61   1.270       .  A
Ni60         O63   1.918   1_554  S
Ni60         O65   1.911       .  S
C61         C278   1.489       .  S
C61          O71   1.271       .  A
O62         Ni78   1.916       .  S
O62          C68   1.275       .  A
O63          C68   1.276       .  A
C64         C401   1.482       .  S
O65          C67   1.268       .  A
O66         Ni77   1.913   1_554  S
C67         C268   1.486       .  S
C67          O73   1.269       .  A
C68         C298   1.477       .  S
H69          O70   0.967       .  S
O70         Ni78   1.912   1_564  S
O70         Ni72   1.920       .  S
O70         Ni77   1.909   1_554  S
O71         Ni72   1.935   1_556  S
Ni72         O76   1.927   1_565  S
Ni72         O74   1.928       .  S
O73         Ni78   1.936   1_554  S
C75         C288   1.487       .  S
C75          O76   1.270       .  A
C80          C81   1.405       .  A
C80          C85   1.408       .  A
C80         C341   1.488       .  S
C81          C82   1.402       .  A
C81          H86   1.084       .  S
C82          C83   1.405       .  A
C82         C248   1.485       .  S
C83          C84   1.405       .  A
C83          H87   1.084       .  S
C84          C85   1.409       .  A
C84         C291   1.484       .  S
C85          H88   1.083       .  S
C89          C90   1.398       .  A
C89          C94   1.394       .  A
C89         C238   1.472       .  S
C90          C91   1.412       .  A
C90          H95   1.083       .  S
C91          C92   1.421       .  A
C91         C228   1.498       .  S
C92          C93   1.416       .  A
C92          H96   1.083       .  S
C93          C94   1.401       .  A
C93         C281   1.495       .  S
C94          H97   1.085       .  S
O98        Ni104   1.927       .  S
O98         C119   1.270       .  A
O99        Ni122   1.909       .  S
O99         C108   1.267   1_445  A
O100       Ni104   1.900   1_565  S
O100       Ni122   1.902   1_565  S
O100       Ni116   1.916   1_465  S
O100        H123   0.965       .  S
C101        C218   1.488       .  S
C101        O118   1.277       .  A
C101        O110   1.278       .  A
O102       Ni121   1.931   1_565  S
O102        C108   1.272       .  A
O103       Ni121   1.903   1_565  S
O103        C105   1.269       .  A
Ni104       O107   1.928   1_545  S
Ni104       O109   1.903       .  S
C105        C368   1.484       .  S
C105        O115   1.275       .  A
O106       Ni122   1.936   1_565  S
O106        C112   1.281       .  A
O107        C112   1.279       .  A
C108        C411   1.466       .  S
O109        C111   1.267       .  A
O110       Ni121   1.931       .  S
C111        C208   1.482       .  S
C111        O117   1.274       .  A
C112        C231   1.494       .  S
H113        O114   0.965       .  S
O114       Ni122   1.923   1_655  S
O114       Ni116   1.911       .  S
O114       Ni121   1.906       .  S
O115       Ni116   1.936   1_565  S
Ni116       O120   1.916   1_655  S
Ni116       O118   1.923       .  S
O117       Ni122   1.935       .  S
C119        C251   1.468       .  S
C119        O120   1.269       .  A
C124        C125   1.399       .  A
C124        C129   1.399       .  A
C124        C201   1.486       .  S
C125        C126   1.403       .  A
C125        H130   1.084       .  S
C126        C127   1.413       .  A
C126        C271   1.493       .  S
C127        C128   1.418       .  A
C127        H131   1.083       .  S
C128        C129   1.410       .  A
C128        C221   1.493       .  S
C129        H132   1.083       .  S
C133        C134   1.411       .  A
C133        C138   1.403       .  A
C133        C211   1.493       .  S
C134        C135   1.411       .  A
C134        H139   1.082       .  S
C135        C136   1.409       .  A
C135        C188   1.494       .  S
C136        C137   1.399       .  A
C136        H140   1.082       .  S
C137        C138   1.403       .  A
C137        C331   1.484       .  S
C138        H141   1.083       .  S
C142        C143   1.412       .  A
C142        C147   1.401       .  A
C142        C261   1.481       .  S
C143        C144   1.410       .  A
C143        H148   1.084       .  S
C144        C145   1.402       .  A
C144        C178   1.481       .  S
C145        C146   1.395       .  A
C145        H149   1.084       .  S
C146        C147   1.397       .  A
C146        C321   1.462       .  S
C147        H150   1.084       .  S
O151       Ni157   1.925       .  S
O151        C172   1.272       .  A
O152       Ni175   1.922       .  S
O152        C161   1.271       .  A
O153       Ni157   1.893       .  S
O153       Ni175   1.902       .  S
O153       Ni169   1.913       .  S
O153        H176   0.966       .  S
C154        C181   1.483       .  S
C154        O171   1.277       .  A
C154        O163   1.278       .  A
O155       Ni174   1.918       .  S
O155        C161   1.269       .  A
O156       Ni174   1.893       .  S
O156        C158   1.267       .  A
Ni157       O160   1.916       .  S
Ni157       O162   1.903       .  S
C158        C381   1.481       .  S
C158        O168   1.275       .  A
O159       Ni175   1.923       .  S
O159        C165   1.279       .  A
O160        C165   1.277       .  A
C161        C198   1.479       .  S
O162        C164   1.268       .  A
O163       Ni174   1.924       .  S
C164        C191   1.477       .  S
C164        O170   1.274       .  A
C165        C308   1.481       .  S
H166        O167   0.967       .  S
O167       Ni175   1.916       .  S
O167       Ni169   1.905       .  S
O167       Ni174   1.891       .  S
O168       Ni169   1.942       .  S
Ni169       O173   1.913       .  S
Ni169       O171   1.920       .  S
O170       Ni175   1.935       .  S
C172        C241   1.482       .  S
C172        O173   1.271       .  A
C177        C178   1.404       .  A
C177        C182   1.402       .  A
C177        H183   1.083       .  S
C178        C179   1.404       .  A
C179        C180   1.395       .  A
C179        H184   1.083       .  S
C180        C181   1.406       .  A
C180        H185   1.083       .  S
C181        C182   1.408       .  A
C182        H186   1.083       .  S
C187        C188   1.410       .  A
C187        C192   1.405       .  A
C187        H193   1.082       .  S
C188        C189   1.407       .  A
C189        C190   1.393       .  A
C189        H194   1.082       .  S
C190        C191   1.403       .  A
C190        H195   1.084       .  S
C191        C192   1.404       .  A
C192        H196   1.083       .  S
C197        C198   1.404       .  A
C197        C202   1.388       .  A
C197        H203   1.083       .  S
C198        C199   1.406       .  A
C199        C200   1.407       .  A
C199        H204   1.083       .  S
C200        C201   1.410       .  A
C200        H205   1.083       .  S
C201        C202   1.402       .  A
C202        H206   1.083       .  S
C207        C208   1.407       .  A
C207        C212   1.400       .  A
C207        H213   1.083       .  S
C208        C209   1.403       .  A
C209        C210   1.400       .  A
C209        H214   1.083       .  S
C210        C211   1.411       .  A
C210        H215   1.082       .  S
C211        C212   1.405       .  A
C212        H216   1.083       .  S
C217        C218   1.405       .  A
C217        C222   1.397       .  A
C217        H223   1.083       .  S
C218        C219   1.409       .  A
C219        C220   1.405       .  A
C219        H224   1.083       .  S
C220        C221   1.406       .  A
C220        H225   1.083       .  S
C221        C222   1.408       .  A
C222        H226   1.083       .  S
C227        C228   1.408       .  A
C227        C232   1.407       .  A
C227        H233   1.083       .  S
C228        C229   1.408       .  A
C229        C230   1.400       .  A
C229        H234   1.083       .  S
C230        C231   1.407       .  A
C230        H235   1.083       .  S
C231        C232   1.409       .  A
C232        H236   1.083       .  S
C237        C238   1.404       .  A
C237        C242   1.403       .  A
C237        H243   1.083       .  S
C238        C239   1.399       .  A
C239        C240   1.392       .  A
C239        H244   1.084       .  S
C240        C241   1.408       .  A
C240        H245   1.083       .  S
C241        C242   1.407       .  A
C242        H246   1.083       .  S
C247        C248   1.406       .  A
C247        C252   1.395       .  A
C247        H253   1.083       .  S
C248        C249   1.407       .  A
C249        C250   1.402       .  A
C249        H254   1.083       .  S
C250        C251   1.402       .  A
C250        H255   1.083   1_545  S
C251        C252   1.401       .  A
C252        H256   1.084       .  S
C257        C258   1.409       .  A
C257        C262   1.393       .  A
C257        H263   1.083       .  S
C258        C259   1.405       .  A
C259        C260   1.404       .  A
C259        H264   1.083       .  S
C260        C261   1.409       .  A
C260        H265   1.083       .  S
C261        C262   1.399       .  A
C262        H266   1.083       .  S
C267        C268   1.410       .  A
C267        C272   1.410       .  A
C267        H273   1.083       .  S
C268        C269   1.402       .  A
C269        C270   1.394       .  A
C269        H274   1.083       .  S
C270        C271   1.407       .  A
C270        H275   1.083       .  S
C271        C272   1.408       .  A
C272        H276   1.083       .  S
C277        C278   1.410       .  A
C277        C282   1.409       .  A
C277        H283   1.083       .  S
C278        C279   1.403       .  A
C279        C280   1.397       .  A
C279        H284   1.083       .  S
C280        C281   1.409       .  A
C280        H285   1.083       .  S
C281        C282   1.406       .  A
C282        H286   1.083       .  S
C287        C288   1.406       .  A
C287        C292   1.406       .  A
C287        H293   1.083       .  S
C288        C289   1.408       .  A
C289        C290   1.396       .  A
C289        H294   1.083       .  S
C290        C291   1.401       .  A
C290        H295   1.083       .  S
C291        C292   1.408       .  A
C292        H296   1.083       .  S
C297        C298   1.405       .  A
C297        C302   1.402       .  A
C297        H303   1.083       .  S
C298        C299   1.406       .  A
C299        C300   1.391       .  A
C299        H304   1.083       .  S
C300        C301   1.399       .  A
C300        H305   1.083       .  S
C301        C302   1.407       .  A
C302        H306   1.083       .  S
C307        C308   1.408       .  A
C307        C312   1.398       .  A
C307        H313   1.083       .  S
C308        C309   1.407       .  A
C309        C310   1.394       .  A
C309        H314   1.083       .  S
C310        C311   1.402       .  A
C310        H315   1.084       .  S
C311        C312   1.401       .  A
C312        H316   1.083       .  S
C317        C318   1.405       .  A
C317        C322   1.401       .  A
C317        H323   1.083       .  S
C318        C319   1.407       .  A
C319        C320   1.389       .  A
C319        H324   1.083       .  S
C320        C321   1.395       .  A
C320        H325   1.084       .  S
C321        C322   1.403       .  A
C322        H326   1.083       .  S
C327        C328   1.403       .  A
C327        C332   1.404       .  A
C327        H333   1.083       .  S
C328        C329   1.403       .  A
C329        C330   1.390       .  A
C329        H334   1.084       .  S
C330        C331   1.403       .  A
C330        H335   1.083       .  S
C331        C332   1.409       .  A
C332        H336   1.083       .  S
C337        C338   1.406       .  A
C337        C342   1.393       .  A
C337        H343   1.083   1_455  S
C338        C339   1.407       .  A
C339        C340   1.405       .  A
C339        H344   1.083       .  S
C340        C341   1.408       .  A
C340        H345   1.083       .  S
C341        C342   1.404       .  A
C342        H346   1.083       .  S
C347        C348   1.401       .  A
C347        C352   1.399       .  A
C347        H353   1.083       .  S
C348        C349   1.408       .  A
C349        C350   1.387       .  A
C349        H354   1.083       .  S
C350        C351   1.397       .  A
C350        H355   1.084       .  S
C351        C352   1.407       .  A
C352        H356   1.083       .  S
C357        C358   1.411       .  A
C357        C362   1.405       .  A
C357        H363   1.083       .  S
C358        C359   1.403       .  A
C359        C360   1.395       .  A
C359        H364   1.083       .  S
C360        C361   1.405       .  A
C360        H365   1.084       .  S
C361        C362   1.403       .  A
C362        H366   1.083       .  S
C367        C368   1.406       .  A
C367        C372   1.398       .  A
C367        H373   1.083       .  S
C368        C369   1.405       .  A
C369        C370   1.401       .  A
C369        H374   1.083       .  S
C370        C371   1.410       .  A
C370        H375   1.082       .  S
C371        C372   1.407       .  A
C372        H376   1.082       .  S
C377        C378   1.403       .  A
C377        C382   1.392       .  A
C377        H383   1.083       .  S
C378        C379   1.409       .  A
C379        C380   1.405       .  A
C379        H384   1.083       .  S
C380        C381   1.405       .  A
C380        H385   1.083       .  S
C381        C382   1.405       .  A
C382        H386   1.083       .  S
C387        C388   1.403       .  A
C387        C392   1.393       .  A
C387        H393   1.083   1_655  S
C388        C389   1.408       .  A
C389        C390   1.405       .  A
C389        H394   1.083       .  S
C390        C391   1.407       .  A
C390        H395   1.083       .  S
C391        C392   1.407       .  A
C392        H396   1.083   1_655  S
C397        C398   1.402       .  A
C397        C402   1.397       .  A
C397        H403   1.083       .  S
C398        C399   1.407       .  A
C399        C400   1.401       .  A
C399        H404   1.083       .  S
C400        C401   1.405       .  A
C400        H405   1.083   1_565  S
C401        C402   1.407       .  A
C402        H406   1.083       .  S
C407        C408   1.403       .  A
C407        C412   1.393       .  A
C407        H413   1.083       .  S
C408        C409   1.408       .  A
C409        C410   1.402       .  A
C409        H414   1.083       .  S
C410        C411   1.402       .  A
C410        H415   1.083   1_565  S
C411        C412   1.401       .  A
C412        H416   1.084       .  S
