geometry optimzed in LAMMPS
_audit_creation_date              2020-12-01 
_audit_creation_method            'lammps2cif' 
_symmetry_space_group_name_H-M    'P1' 
_symmetry_Int_Tables_number       1 
_symmetry_cell_setting            triclinic 
loop_ 
_symmetry_equiv_pos_as_xyz 
  x,y,z 
_cell_length_a                    30.72489935 
_cell_length_b                    30.863161010403328 
_cell_length_c                    31.346624975704053 
_cell_angle_alpha                 89.4446461613029 
_cell_angle_beta                  90.63785348280214 
_cell_angle_gamma                 89.42220695295437 
loop_ 
_atom_site_label 
_atom_site_type_symbol 
_atom_site_fract_x 
_atom_site_fract_y 
_atom_site_fract_z 
_atom_site_charge 
C1          C  0.12157443  0.84507142  0.46274087     0.01500
C2          C  0.10316616  0.82897416  0.50120681     0.01500
C3          C  0.12692271  0.83574585  0.54081069     0.01500
C4          C  0.15384224  0.87377821  0.54362010     0.01500
C5          C  0.16568264  0.89610803  0.50559179     0.01500
C6          C  0.15342489  0.87862320  0.46510692     0.01500
C7          C  0.16884698  0.10913524  0.54067885     0.01500
C8          C  0.17896668  0.08642833  0.50185461     0.01500
C9          C  0.16850429  0.10869025  0.46215858     0.01500
C10         C  0.12917063  0.13499962  0.46181814     0.01500
C11         C  0.10767352  0.14545414  0.50082486     0.01500
C12         C  0.12894226  0.13470235  0.54064274     0.01500
C13         C  0.89411630  0.13134585  0.53837903     0.01500
C14         C  0.91599359  0.13501297  0.49876333     0.01500
C15         C  0.89227856  0.12536295  0.46075200     0.01500
C16         C  0.84961874  0.10613986  0.46252728     0.01500
C17         C  0.83730000  0.08748571  0.50280215     0.01500
C18         C  0.85456919  0.10690998  0.54044603     0.01500
C19         C  0.88915587  0.83674167  0.53991522     0.01500
C20         C  0.91105360  0.82708519  0.50016164     0.01500
C21         C  0.89210372  0.84370481  0.46065356     0.01500
C22         C  0.86141768  0.87896437  0.46203972     0.01500
C23         C  0.85273245  0.89857800  0.50178685     0.01500
C24         C  0.86330823  0.87594888  0.54028044     0.01500
C25         C  0.46222841  0.12888829  0.15302269     0.01500
C26         C  0.45876428  0.15934114  0.11811840     0.01500
C27         C  0.49629173  0.17229833  0.09285631     0.01500
C28         C  0.53854882  0.16004454  0.11083844     0.01500
C29         C  0.54063502  0.12504168  0.14172787     0.01500
C30         C  0.50188840  0.10538830  0.15699233     0.01500
C31         C  0.53960407  0.13309981  0.89713523     0.01500
C32         C  0.49824211  0.14538670  0.91360171     0.01500
C33         C  0.45981019  0.13127751  0.89074164     0.01500
C34         C  0.46325245  0.10271507  0.85449394     0.01500
C35         C  0.50461409  0.08171430  0.84836615     0.01500
C36         C  0.54255819  0.10372016  0.86243926     0.01500
C37         C  0.46540180  0.86329266  0.11448393     0.01500
C38         C  0.46901191  0.90066589  0.14224978     0.01500
C39         C  0.51058186  0.91570910  0.15642211     0.01500
C40         C  0.54718265  0.88753007  0.14967076     0.01500
C41         C  0.54420165  0.86127802  0.11153060     0.01500
C42         C  0.50355711  0.85180045  0.09129797     0.01500
C43         C  0.54993573  0.86844933  0.85107969     0.01500
C44         C  0.51065211  0.89115034  0.84169454     0.01500
C45         C  0.47036630  0.87077952  0.85107937     0.01500
C46         C  0.46880161  0.83427579  0.88013421     0.01500
C47         C  0.50862033  0.82413064  0.90328540     0.01500
C48         C  0.54914260  0.83498206  0.88325966     0.01500
C49         C  0.15322067  0.45912042  0.89310458     0.01500
C50         C  0.11376856  0.45878962  0.86748556     0.01500
C51         C  0.09432044  0.49864113  0.85387995     0.01500
C52         C  0.11573280  0.53778986  0.86453453     0.01500
C53         C  0.14839661  0.53854422  0.89718653     0.01500
C54         C  0.16339627  0.49849130  0.91523810     0.01500
C55         C  0.13592676  0.46075420  0.12010437     0.01500
C56         C  0.14536124  0.50103415  0.09959127     0.01500
C57         C  0.13861213  0.54090962  0.12114933     0.01500
C58         C  0.11354431  0.54128774  0.15941703     0.01500
C59         C  0.09461929  0.50160782  0.17452726     0.01500
C60         C  0.11596195  0.46133762  0.16187899     0.01500
C61         C  0.87712930  0.45853195  0.14690079     0.01500
C62         C  0.90278726  0.49604054  0.15729435     0.01500
C63         C  0.88703273  0.53722897  0.14241866     0.01500
C64         C  0.86115738  0.53948291  0.10447064     0.01500
C65         C  0.84621379  0.50120990  0.08461408     0.01500
C66         C  0.85263776  0.46067027  0.10638104     0.01500
C67         C  0.85637531  0.53996330  0.87308427     0.01500
C68         C  0.88263522  0.54059614  0.83480443     0.01500
C69         C  0.90606881  0.50093545  0.82452106     0.01500
C70         C  0.88998081  0.45986255  0.84163192     0.01500
C71         C  0.86415480  0.46031098  0.87965648     0.01500
C72         C  0.85054803  0.50059685  0.89716445     0.01500
O73         O  0.11881387  0.95183499  0.80950539    -0.80900
O74         O  0.19094577  0.04470584  0.89312449    -0.80900
O75         O  0.21440070  0.91504093  0.84922381    -0.80900
O76         O  0.15911725  0.09506931  0.78493430    -0.80900
O77         O  0.19840995  0.96327942  0.89530694    -0.81000
O78         O  0.11276713  0.04648870  0.81035813    -0.80900
O79         O  0.20296646  0.09374724  0.84691929    -0.80900
O80         O  0.17035367  0.90649211  0.78551421    -0.80900
C81         C  0.13136196  0.91369193  0.79855179     1.08800
C82         C  0.19024283  0.08355241  0.88312032     1.08700
C83         C  0.20270316  0.92441158  0.88624521     1.08800
C84         C  0.12194067  0.08548031  0.80075309     1.08700
O85         O  0.15166728  0.04561884  0.72596969    -0.80900
O86         O  0.27827967  0.96385885  0.83876302    -0.81000
O87         O  0.22451498  0.96032739  0.73000363    -0.80900
O88         O  0.25628139  0.10572490  0.78657987    -0.80900
O89         O  0.27247067  0.05283635  0.83458589    -0.80900
O90         O  0.15362544  0.95908922  0.72870470    -0.80900
O91         O  0.22264325  0.04393142  0.73413921    -0.80900
O92         O  0.27196240  0.91152346  0.78998140    -0.80900
Co93       Co  0.13604378  0.00123939  0.77232455     1.51500
Co94       Co  0.23122787  0.00626009  0.86192092     1.51700
Co95       Co  0.22119014  0.94724786  0.79302069     1.51600
Co96       Co  0.21503199  0.06074476  0.79367195     1.51500
O97         O  0.19094007  0.00279961  0.80824741    -1.42800
C98         C  0.18966728  0.05180837  0.71094340     1.08700
C99         C  0.29536160  0.93274102  0.81674441     1.08800
C100        C  0.18923795  0.95396825  0.70950515     1.08700
C101        C  0.28406107  0.08563367  0.81066422     1.08700
O102        O  0.04959333  0.11032726  0.81424469    -0.80900
O103        O  0.96309424  0.22564808  0.90741430    -0.80900
O104        O  0.08669785  0.21208404  0.84745876    -0.80900
O105        O  0.90705767  0.15590024  0.78743450    -0.80900
O106        O  0.03615047  0.17890335  0.88509110    -0.81000
O107        O  0.95608937  0.11205586  0.81684906    -0.80900
O108        O  0.92332168  0.19632650  0.85553492    -0.80900
O109        O  0.09621967  0.15542425  0.78457216    -0.80900
C110        C  0.08791587  0.11915361  0.80206861     1.08800
C111        C  0.92945409  0.20502716  0.89533837     1.08700
C112        C  0.07507780  0.19275036  0.88169608     1.08800
C113        C  0.91678040  0.12009607  0.80586702     1.08700
O114        O  0.95711678  0.14214567  0.72923367    -0.80900
O115        O  0.02864360  0.26708384  0.85808988    -0.81000
O116        O  0.05110814  0.21095681  0.72424253    -0.80900
O117        O  0.89287057  0.24732678  0.78866395    -0.80900
O118        O  0.95054805  0.26572359  0.82803872    -0.80900
O119        O  0.04318608  0.14008664  0.72777596    -0.80900
O120        O  0.95075010  0.21351189  0.72924683    -0.80900
O121        O  0.04253658  0.27270719  0.78986806    -0.80900
Co122      Co  0.00158879  0.12881297  0.77504810     1.51500
Co123      Co  0.99044624  0.21504955  0.85433004     1.51700
Co124      Co  0.06478952  0.21246502  0.78644587     1.51600
Co125      Co  0.94300363  0.20945963  0.79242344     1.51500
O126        O  0.00470735  0.18871588  0.79903739    -1.42800
C127        C  0.94933766  0.17766136  0.70937170     1.08700
C128        C  0.04215400  0.28944297  0.82658177     1.08800
C129        C  0.05236160  0.17416825  0.70646626     1.08700
C130        C  0.91518957  0.27650361  0.80706324     1.08700
O131        O  0.04938913  0.89392967  0.18522164    -0.80900
O132        O  0.96478412  0.81096120  0.09991322    -0.80900
O133        O  0.09454963  0.79854281  0.15159104    -0.80900
O134        O  0.90703600  0.84395917  0.20818804    -0.80900
O135        O  0.04615860  0.81463415  0.10522152    -0.81000
O136        O  0.95416892  0.89184086  0.18233282    -0.80900
O137        O  0.91516194  0.80078374  0.14619125    -0.80900
O138        O  0.09690220  0.84533639  0.21249463    -0.80900
C139        C  0.08817816  0.88305502  0.19693786     1.08800
C140        C  0.92546558  0.81100348  0.10899894     1.08700
C141        C  0.08510119  0.81154524  0.11458698     1.08800
C142        C  0.91564552  0.88200571  0.19324616     1.08700
O143        O  0.95756765  0.85669752  0.26783340    -0.80900
O144        O  0.05100444  0.73379974  0.16863008    -0.81000
O145        O  0.04639712  0.79058572  0.26939986    -0.80900
O146        O  0.90603006  0.74171916  0.20461822    -0.80900
O147        O  0.96024095  0.73340385  0.15895176    -0.80900
O148        O  0.04473500  0.86105643  0.26843484    -0.80900
O149        O  0.95810983  0.78542713  0.26435275    -0.80900
O150        O  0.10390642  0.74856064  0.21706736    -0.80900
Co151      Co  0.00123203  0.87374293  0.22229065     1.51500
Co152      Co  0.00599011  0.77683776  0.13677723     1.51700
Co153      Co  0.06081459  0.79191624  0.20703418     1.51600
Co154      Co  0.94556156  0.79039220  0.20226790     1.51500
O155        O  0.00304050  0.81783033  0.18924614    -1.42800
C156        C  0.95116108  0.81973247  0.28539005     1.08700
C157        C  0.08294248  0.72115017  0.19434590     1.08800
C158        C  0.05235527  0.82619315  0.28865356     1.08700
C159        C  0.92757743  0.71722513  0.17913685     1.08700
O160        O  0.21672433  0.85140619  0.09287373    -0.80900
O161        O  0.15892199  0.79506427  0.90862016    -0.80900
O162        O  0.18857901  0.89761917  0.95687981    -0.80900
O163        O  0.11222996  0.82853123  0.04389679    -0.80900
O164        O  0.21904073  0.85378085  0.91111684    -0.81000
O165        O  0.15473922  0.79474377  0.09078400    -0.80900
O166        O  0.11472082  0.82930268  0.95135596    -0.80900
O167        O  0.18712877  0.89694995  0.04689481    -0.80900
C168        C  0.19853104  0.88819350  0.08495220     1.08800
C169        C  0.12298065  0.81477048  0.91457324     1.08700
C170        C  0.20098590  0.88989774  0.91931528     1.08800
C171        C  0.11942363  0.81453082  0.08181697     1.08700
O172        O  0.20714926  0.73020416  0.04711567    -0.80900
O173        O  0.27760171  0.79434584  0.95857583    -0.81000
O174        O  0.27665858  0.86050125  0.04593492    -0.80900
O175        O  0.14356033  0.73777603  0.95757380    -0.80900
O176        O  0.21474605  0.73407075  0.95654623    -0.80900
O177        O  0.27455992  0.78970799  0.04706717    -0.80900
O178        O  0.13713986  0.73907589  0.04073343    -0.80900
O179        O  0.27858034  0.86473042  0.96065427    -0.80900
Co180      Co  0.21310698  0.79235964  0.06330388     1.51500
Co181      Co  0.21674270  0.79500879  0.93975701     1.51700
Co182      Co  0.22825888  0.87517564  0.00252357     1.51600
Co183      Co  0.13216883  0.78820248  0.99830626     1.51500
O184        O  0.19648256  0.81368377  0.00104742    -1.42800
C185        C  0.16921459  0.71463075  0.04982894     1.08700
C186        C  0.29729967  0.82903398  0.95158692     1.08800
C187        C  0.29497271  0.82402215  0.05420064     1.08700
C188        C  0.17864368  0.71617364  0.95130699     1.08700
O189        O  0.09941047  0.15371931  0.21583419    -0.80900
O190        O  0.91074559  0.21365909  0.15888068    -0.80900
O191        O  0.95873964  0.11151836  0.18080914    -0.80900
O192        O  0.04640004  0.18299448  0.11538631    -0.80900
O193        O  0.91288088  0.15310789  0.21573043    -0.81000
O194        O  0.09536632  0.21322495  0.15605186    -0.80900
O195        O  0.95797468  0.18303275  0.11708726    -0.80900
O196        O  0.05377143  0.11231853  0.18109870    -0.80900
C197        C  0.09165699  0.11872932  0.19649340     1.08800
C198        C  0.91930422  0.19417941  0.12413876     1.08700
C199        C  0.92063136  0.11886328  0.19505962     1.08800
C200        C  0.08520643  0.19397207  0.12140599     1.08700
O201        O  0.04729286  0.27081093  0.21670212    -0.80900
O202        O  0.96086224  0.20461161  0.27741270    -0.81000
O203        O  0.04868796  0.13687112  0.27023459    -0.80900
O204        O  0.95864029  0.27369807  0.14917846    -0.80900
O205        O  0.95839446  0.27219742  0.21870477    -0.80900
O206        O  0.05135417  0.20717056  0.27579962    -0.80900
O207        O  0.04597529  0.27352824  0.14742415    -0.80900
O208        O  0.96491436  0.13459768  0.26916068    -0.80900
Co209      Co  0.06764996  0.21095850  0.21538880     1.51500
Co210      Co  0.94182010  0.21070688  0.21709171     1.51700
Co211      Co  0.00644835  0.12862348  0.22091316     1.51600
Co212      Co  0.00245009  0.22440834  0.13656819     1.51500
O213        O  0.00456510  0.19283988  0.19692768    -1.42800
C214        C  0.05402913  0.29149346  0.18305532     1.08700
C215        C  0.95887157  0.16684203  0.29318493     1.08800
C216        C  0.05493931  0.17029663  0.29298911     1.08700
C217        C  0.94980364  0.29214594  0.18445278     1.08700
O218        O  0.15893996  0.90453583  0.21658345    -0.80900
O219        O  0.19848060  0.07688702  0.14585416    -0.80900
O220        O  0.11555957  0.04516361  0.19118404    -0.80900
O221        O  0.18321494  0.96041604  0.11585424    -0.80900
O222        O  0.16207825  0.09160107  0.21696920    -0.81000
O223        O  0.21783364  0.91039435  0.15434267    -0.80900
O224        O  0.22546890  0.03772268  0.09283308    -0.80900
O225        O  0.11297820  0.95513140  0.19231619    -0.80900
C226        C  0.12227752  0.91574278  0.20002385     1.08800
C227        C  0.20656898  0.07225558  0.10583720     1.08700
C228        C  0.12500532  0.08379505  0.20008617     1.08800
C229        C  0.19796406  0.92146365  0.12006867     1.08700
O230        O  0.27722522  0.95492953  0.21072328    -0.80900
O231        O  0.22598914  0.04336709  0.26948381    -0.81000
O232        O  0.14818988  0.95447114  0.27786724    -0.80900
O233        O  0.26896805  0.04677449  0.16957515    -0.80900
O234        O  0.25457196  0.10325720  0.21008967    -0.80900
O235        O  0.21925253  0.94584474  0.27532183    -0.80900
O236        O  0.27166781  0.96917400  0.14228276    -0.80900
O237        O  0.15484835  0.04136911  0.27834003    -0.80900
Co238      Co  0.21757907  0.93312983  0.21427146     1.51500
Co239      Co  0.21554740  0.05434796  0.20772193     1.51700
Co240      Co  0.13551422  0.99898513  0.23197373     1.51600
Co241      Co  0.21805031  0.00718341  0.14575247     1.51500
O242        O  0.19342187  0.99362929  0.20226967    -1.42800
C243        C  0.29488674  0.95816676  0.17474103     1.08700
C244        C  0.19311842  0.04885368  0.29306044     1.08800
C245        C  0.18429536  0.94411482  0.29567938     1.08700
C246        C  0.28206093  0.08140484  0.18875362     1.08700
O247        O  0.17888237  0.10521733  0.04122662    -0.80900
O248        O  0.10018930  0.18034756  0.95555704    -0.80900
O249        O  0.15392581  0.20890012  0.09246604    -0.80900
O250        O  0.20107605  0.15407260  0.90567463    -0.80900
O251        O  0.10674466  0.17905700  0.04857363    -0.81000
O252        O  0.17120339  0.11000272  0.95188254    -0.80900
O253        O  0.14278691  0.21347272  0.91040852    -0.80900
O254        O  0.21337532  0.14649369  0.08679168    -0.80900
C255        C  0.19707746  0.10988570  0.07716686     1.08800
C256        C  0.10759875  0.19347487  0.91778251     1.08700
C257        C  0.11720997  0.19153632  0.08604613     1.08800
C258        C  0.18371444  0.11795679  0.91436202     1.08700
O259        O  0.26115840  0.13746924  0.95088457    -0.80900
O260        O  0.13697368  0.26681941  0.04307017    -0.81000
O261        O  0.26866563  0.20588160  0.03765948    -0.80900
O262        O  0.20418619  0.26867224  0.95829410    -0.80900
O263        O  0.13318923  0.27039920  0.95945076    -0.80900
O264        O  0.26708580  0.13551964  0.03357656    -0.80900
O265        O  0.26591796  0.20751003  0.94978666    -0.80900
O266        O  0.20769323  0.26987695  0.04468761    -0.80900
Co267      Co  0.21509079  0.12690282  0.99477797     1.51500
Co268      Co  0.12385196  0.21944887  0.00120099     1.51700
Co269      Co  0.20977136  0.20717678  0.05963808     1.51600
Co270      Co  0.20302921  0.21039904  0.93690689     1.51500
O271        O  0.18666789  0.18978368  0.99850836    -1.42800
C272        C  0.28297390  0.17118100  0.94279656     1.08700
C273        C  0.17140838  0.28873476  0.04843954     1.08800
C274        C  0.28748023  0.16989406  0.04220657     1.08700
C275        C  0.16934363  0.28902925  0.95236800     1.08700
O276        O  0.85010222  0.09535855  0.21401412    -0.80900
O277        O  0.80435820  0.92597274  0.14298213    -0.80900
O278        O  0.89185662  0.95570484  0.18550439    -0.80900
O279        O  0.82321491  0.03893945  0.11510397    -0.80900
O280        O  0.84624177  0.90825465  0.21226926    -0.81000
O281        O  0.79040146  0.08985671  0.15249695    -0.80900
O282        O  0.77457646  0.96727256  0.09147105    -0.80900
O283        O  0.89449379  0.04723205  0.18579037    -0.80900
C284        C  0.88616693  0.08582267  0.19602053     1.08800
C285        C  0.79402521  0.93245200  0.10321717     1.08700
C286        C  0.88254551  0.91668919  0.19533011     1.08800
C287        C  0.81056195  0.07842011  0.11932645     1.08700
O288        O  0.72957292  0.04688341  0.20741231    -0.80900
O289        O  0.79096105  0.95270504  0.27097746    -0.81000
O290        O  0.86252142  0.04560018  0.27464445    -0.80900
O291        O  0.73523732  0.95487587  0.17039767    -0.80900
O292        O  0.75605613  0.89736087  0.20975216    -0.80900
O293        O  0.79079653  0.05060176  0.27172374    -0.80900
O294        O  0.73490896  0.03296903  0.13957218    -0.80900
O295        O  0.86200388  0.95824978  0.27085294    -0.80900
Co296      Co  0.79083401  0.06660502  0.21173367     1.51500
Co297      Co  0.79329969  0.94596109  0.20677796     1.51700
Co298      Co  0.87484750  0.00226951  0.22629373     1.51600
Co299      Co  0.78665929  0.99362621  0.14472052     1.51500
O300        O  0.81445068  0.00652143  0.20009480    -1.42800
C301        C  0.71224755  0.04603516  0.17055310     1.08700
C302        C  0.82755781  0.95000981  0.29086310     1.08800
C303        C  0.82589262  0.05444741  0.29212398     1.08700
C304        C  0.72610721  0.91903131  0.19055520     1.08700
O305        O  0.79170098  0.14773093  0.09151739    -0.80900
O306        O  0.85625269  0.20987302  0.91327428    -0.80900
O307        O  0.82994783  0.10273990  0.95870710    -0.80900
O308        O  0.89474689  0.17766474  0.05271344    -0.80900
O309        O  0.79980475  0.14616300  0.91065815    -0.81000
O310        O  0.84893139  0.20948885  0.09559470    -0.80900
O311        O  0.89968730  0.17984361  0.96160050    -0.80900
O312        O  0.82725426  0.10486777  0.04873102    -0.80900
C313        C  0.81212889  0.11216520  0.08513075     1.08800
C314        C  0.89353629  0.19542148  0.92445366     1.08700
C315        C  0.81889408  0.11038761  0.92012639     1.08800
C316        C  0.88562455  0.19137694  0.08968385     1.08700
O317        O  0.79147156  0.26746421  0.04311528    -0.80900
O318        O  0.73424116  0.20021046  0.95192026    -0.81000
O319        O  0.73405375  0.13553107  0.04159379    -0.80900
O320        O  0.86506947  0.26692793  0.96357177    -0.80900
O321        O  0.79453202  0.26788965  0.95362922    -0.80900
O322        O  0.73333507  0.20600677  0.04059729    -0.80900
O323        O  0.86186121  0.26640585  0.04588359    -0.80900
O324        O  0.73987381  0.12980042  0.95754566    -0.80900
Co325      Co  0.79233482  0.20679463  0.06203810     1.51500
Co326      Co  0.79657647  0.20528841  0.93848174     1.51700
Co327      Co  0.78707893  0.12340608  0.00204486     1.51600
Co328      Co  0.87568461  0.21777900  0.00574871     1.51500
O329        O  0.81406285  0.18723673  0.00168853    -1.42800
C330        C  0.82633072  0.28758722  0.04714746     1.08700
C331        C  0.71724178  0.16321232  0.94891089     1.08800
C332        C  0.71394605  0.17155250  0.04773555     1.08700
C333        C  0.83052585  0.28755899  0.95272334     1.08700
O334        O  0.10764717  0.84315075  0.77784864    -0.80900
O335        O  0.94134474  0.80173740  0.86774770    -0.80900
O336        O  0.97126223  0.89092368  0.80985057    -0.80900
O337        O  0.04985420  0.82238164  0.88410681    -0.80900
O338        O  0.92028992  0.84389940  0.79488675    -0.81000
O339        O  0.10197038  0.79162260  0.84619544    -0.80900
O340        O  0.98664723  0.76580950  0.91140738    -0.80900
O341        O  0.05961714  0.88892963  0.80324402    -0.80900
C342        C  0.09843343  0.87953806  0.79455734     1.08800
C343        C  0.95055771  0.78488552  0.90512604     1.08700
C344        C  0.93147076  0.88163042  0.80646248     1.08800
C345        C  0.08983361  0.81177818  0.87955085     1.08700
O346        O  0.05600499  0.72666005  0.79356307    -0.80900
O347        O  0.95611255  0.78089638  0.73850711    -0.81000
O348        O  0.05310653  0.84891814  0.71781252    -0.80900
O349        O  0.96683402  0.73069629  0.83329077    -0.80900
O350        O  0.90435359  0.75438608  0.80472869    -0.80900
O351        O  0.05843700  0.77877504  0.72788354    -0.80900
O352        O  0.04931502  0.73442709  0.86151958    -0.80900
O353        O  0.96387636  0.85079541  0.72594379    -0.80900
Co354      Co  0.07695423  0.78575347  0.78671011     1.51500
Co355      Co  0.95517901  0.78937490  0.80205331     1.51700
Co356      Co  0.01227094  0.86705965  0.76704612     1.51600
Co357      Co  0.00649440  0.78258111  0.85683676     1.51500
O358        O  0.01702221  0.81008569  0.80012571    -1.42800
C359        C  0.05731654  0.71058704  0.83023452     1.08700
C360        C  0.95121740  0.81372691  0.71380712     1.08800
C361        C  0.06258489  0.81090207  0.70401322     1.08700
C362        C  0.92790992  0.72285500  0.81824061     1.08700
O363        O  0.89385557  0.04836263  0.82216843    -0.80900
O364        O  0.82758692  0.94927970  0.88732643    -0.80900
O365        O  0.80221187  0.08499654  0.85075215    -0.80900
O366        O  0.86239388  0.90649799  0.78843519    -0.80900
O367        O  0.82981334  0.03753108  0.89270468    -0.81000
O368        O  0.90525886  0.95407502  0.82038665    -0.80900
O369        O  0.79955180  0.90205227  0.84256870    -0.80900
O370        O  0.84624184  0.09316392  0.79047712    -0.80900
C371        C  0.88356237  0.08617506  0.80828936     1.08800
C372        C  0.81795103  0.91060003  0.87797333     1.08700
C373        C  0.81921444  0.07617315  0.88634560     1.08800
C374        C  0.89773269  0.91564727  0.80761420     1.08700
O375        O  0.87897614  0.95825878  0.73314656    -0.80900
O376        O  0.74099347  0.04045478  0.84055375    -0.81000
O377        O  0.79450470  0.03983317  0.73210769    -0.80900
O378        O  0.73947254  0.94795817  0.78376121    -0.80900
O379        O  0.74195228  0.95450811  0.85247334    -0.80900
O380        O  0.86578305  0.04337298  0.73555909    -0.80900
O381        O  0.80880419  0.95183704  0.72575590    -0.80900
O382        O  0.74680962  0.09142949  0.78885647    -0.80900
Co383      Co  0.88270888  0.00074212  0.78156506     1.51500
Co384      Co  0.78926349  0.99607892  0.86445734     1.51700
Co385      Co  0.79501977  0.05251938  0.79407556     1.51600
Co386      Co  0.80295925  0.93286359  0.78577726     1.51500
O387        O  0.82189021  0.99388919  0.80729096    -1.42800
C388        C  0.84649801  0.94889651  0.70996539     1.08700
C389        C  0.72359333  0.07138099  0.81644841     1.08800
C390        C  0.83070738  0.04640803  0.71394947     1.08700
C391        C  0.72083774  0.94469030  0.81941756     1.08700
O392        O  0.81493170  0.90311196  0.03572449    -0.80900
O393        O  0.92483238  0.76817097  0.97558827    -0.80900
O394        O  0.85340863  0.79984135  0.08797915    -0.80900
O395        O  0.80745273  0.83835390  0.90290999    -0.80900
O396        O  0.89699323  0.82519136  0.03784495    -0.81000
O397        O  0.82999359  0.88662054  0.94865179    -0.80900
O398        O  0.87913623  0.80056555  0.92960611    -0.80900
O399        O  0.78811137  0.85916583  0.08499842    -0.80900
C400        C  0.80107468  0.89650069  0.07326841     1.08800
C401        C  0.91742161  0.78520344  0.93898846     1.08700
C402        C  0.89009766  0.81498134  0.07669782     1.08800
C403        C  0.82111834  0.87639671  0.91069117     1.08700
O404        O  0.74246560  0.85058380  0.94393956    -0.80900
O405        O  0.86832052  0.73797497  0.03976724    -0.81000
O406        O  0.73285183  0.79843986  0.04184466    -0.80900
O407        O  0.81523084  0.74650414  0.89980844    -0.80900
O408        O  0.84658064  0.73131001  0.96206497    -0.80900
O409        O  0.73138160  0.86789294  0.02656059    -0.80900
O410        O  0.75011477  0.77956983  0.94861825    -0.80900
O411        O  0.79769855  0.73653288  0.04663828    -0.80900
Co412      Co  0.78301175  0.87421168  0.98904070     1.51500
Co413      Co  0.86927299  0.78560950  0.99606056     1.51700
Co414      Co  0.79364558  0.79866330  0.06155325     1.51600
Co415      Co  0.81362047  0.78823691  0.94463459     1.51500
O416        O  0.81226090  0.81619379  0.00242000    -1.42800
C417        C  0.72663851  0.81265393  0.94056229     1.08700
C418        C  0.83399519  0.71700343  0.04812423     1.08800
C419        C  0.71232673  0.83397376  0.03929057     1.08700
C420        C  0.83177582  0.71871033  0.92560844     1.08700
C421        C  0.85995719  0.61763985  0.80897580    -0.21100
C422        C  0.89291206  0.58552768  0.81370341    -0.07600
C423        C  0.93534815  0.60092092  0.80472162     0.13200
C424        C  0.94574575  0.64414827  0.81352767    -0.21100
C425        C  0.91330151  0.67635832  0.81475142    -0.07600
C426        C  0.86958063  0.66270989  0.80832655     0.13200
C427        C  0.83300965  0.69479292  0.80127041    -0.24500
H428        H  0.82644215  0.60752810  0.80749530     0.14500
H429        H  0.97934012  0.65390629  0.81052040     0.14500
C430        C  0.96017806  0.58352162  0.76752580    -0.24400
H431        H  0.80102183  0.67854633  0.79850314     0.04700
H432        H  0.83840011  0.71328520  0.77127812     0.08000
H433        H  0.83146305  0.71752986  0.82821342     0.08000
H434        H  0.94228430  0.55690521  0.75205332     0.08000
H435        H  0.99368526  0.57416668  0.77765752     0.08000
H436        H  0.96327769  0.60893464  0.74237318     0.04700
C437        C  0.87998080  0.60564882  0.91139638    -0.21100
C438        C  0.84545968  0.58251681  0.89378564    -0.07600
C439        C  0.80423258  0.60331217  0.88988961     0.13200
C440        C  0.80005368  0.64792672  0.89993546    -0.21100
C441        C  0.83589222  0.67161592  0.91522105    -0.07600
C442        C  0.87583008  0.64925173  0.92241852     0.13200
C443        C  0.91576581  0.67162689  0.93873875    -0.24500
H444        H  0.91157794  0.59038367  0.91368882     0.14500
H445        H  0.76895134  0.66432566  0.89561198     0.14500
C446        C  0.76549511  0.57905428  0.87316204    -0.24400
H447        H  0.94355110  0.64880574  0.94269508     0.04700
H448        H  0.91001669  0.68535599  0.97049795     0.08000
H449        H  0.92483946  0.69752373  0.91595374     0.08000
H450        H  0.75850844  0.55140753  0.89480505     0.08000
H451        H  0.77212381  0.56637532  0.84085425     0.08000
H452        H  0.73602373  0.60013936  0.87113024     0.04700
C453        C  0.86013758  0.38950327  0.81253648    -0.21100
C454        C  0.89732101  0.41537856  0.82107013    -0.07600
C455        C  0.93821142  0.39382439  0.81736379     0.13200
C456        C  0.94067664  0.35121587  0.80278932    -0.21100
C457        C  0.90479862  0.32409955  0.80344558    -0.07600
C458        C  0.86331972  0.34372281  0.80742521     0.13200
C459        C  0.82305248  0.31657867  0.80938707    -0.24500
H460        H  0.82815650  0.40430387  0.81500234     0.14500
H461        H  0.97252309  0.33688341  0.79796109     0.14500
C462        C  0.98015240  0.40879562  0.83547327    -0.24400
H463        H  0.79340343  0.33682471  0.81393197     0.04700
H464        H  0.82577060  0.29342132  0.83666668     0.08000
H465        H  0.81915793  0.29830820  0.77929104     0.08000
H466        H  0.99253074  0.38380170  0.85739150     0.08000
H467        H  0.97793617  0.43766007  0.85479722     0.08000
H468        H  0.00397301  0.41190117  0.80972198     0.04700
C469        C  0.81147425  0.40258741  0.90422759    -0.21100
C470        C  0.85454898  0.41821243  0.90358563    -0.07600
C471        C  0.88744157  0.39166359  0.92297062     0.13200
C472        C  0.87724065  0.35091829  0.93948241    -0.21100
C473        C  0.83518300  0.33385499  0.93774460    -0.07600
C474        C  0.80142326  0.36073411  0.92054269     0.13200
C475        C  0.75514617  0.34542014  0.91825982    -0.24500
H476        H  0.78582959  0.42248144  0.88999778     0.14500
H477        H  0.90373173  0.33160325  0.95301580     0.14500
C478        C  0.93458411  0.40304494  0.92611915    -0.24400
H479        H  0.73303266  0.37054250  0.90419380     0.04700
H480        H  0.74352423  0.33767407  0.95084482     0.08000
H481        H  0.75311421  0.31619394  0.89798334     0.08000
H482        H  0.94150052  0.43397218  0.91087334     0.08000
H483        H  0.95373997  0.37670127  0.91170138     0.08000
H484        H  0.94624110  0.40424438  0.95945096     0.04700
C485        C  0.93969144  0.59750483  0.14784822    -0.21100
C486        C  0.90110746  0.57935796  0.16189338    -0.07600
C487        C  0.87192643  0.60593695  0.18488416     0.13200
C488        C  0.88151962  0.65026545  0.19151264    -0.21100
C489        C  0.91789438  0.66976035  0.17248795    -0.07600
C490        C  0.94622578  0.64241457  0.14844954     0.13200
C491        C  0.98226628  0.65913907  0.12059076    -0.24500
H492        H  0.96284446  0.57683490  0.13187703     0.14500
H493        H  0.85953627  0.67002331  0.21004964     0.14500
C494        C  0.83059696  0.58730141  0.20223520    -0.24400
H495        H  0.00076956  0.63219767  0.10608864     0.04700
H496        H  0.00676691  0.67713207  0.13846515     0.08000
H497        H  0.96844525  0.68022660  0.09483141     0.08000
H498        H  0.83863628  0.55990889  0.22425320     0.08000
H499        H  0.80983341  0.57525551  0.17583195     0.08000
H500        H  0.81155841  0.61183847  0.22001649     0.04700
C501        C  0.81117333  0.60100197  0.08624634    -0.21100
C502        C  0.85293073  0.58259913  0.08322595    -0.07600
C503        C  0.88599469  0.60692573  0.06296825     0.13200
C504        C  0.87800349  0.65011713  0.05225547    -0.21100
C505        C  0.83744643  0.66990955  0.05832161    -0.07600
C506        C  0.80272705  0.64423565  0.07365516     0.13200
C507        C  0.75710213  0.66188063  0.07786910    -0.24500
H508        H  0.78536231  0.58179172  0.09986495     0.14500
H509        H  0.90463099  0.66876549  0.03964502     0.14500
C510        C  0.92972452  0.58912731  0.05027982    -0.24400
H511        H  0.73447810  0.63697632  0.09018511     0.04700
H512        H  0.74452483  0.67279462  0.04616041     0.08000
H513        H  0.75680805  0.68934267  0.10046685     0.08000
H514        H  0.92923877  0.58341443  0.01555700     0.08000
H515        H  0.93941827  0.55956676  0.06818416     0.08000
H516        H  0.95552381  0.61312087  0.05511817     0.04700
C517        C  0.86202325  0.37758384  0.16140637    -0.21100
C518        C  0.88342169  0.41570236  0.17290628    -0.07600
C519        C  0.91400358  0.40921122  0.20690809     0.13200
C520        C  0.93559592  0.36856047  0.21128220    -0.21100
C521        C  0.92398210  0.33365020  0.18511148    -0.07600
C522        C  0.88271532  0.33690267  0.16512201     0.13200
C523        C  0.85895135  0.29734835  0.15095479    -0.24500
H524        H  0.82874155  0.37912821  0.15123352     0.14500
H525        H  0.95890642  0.36352793  0.23681357     0.14500
C526        C  0.91680814  0.43986119  0.24376752    -0.24400
H527        H  0.82556674  0.30512723  0.13924253     0.04700
H528        H  0.85590612  0.27440013  0.17820822     0.08000
H529        H  0.87727173  0.28218005  0.12484907     0.08000
H530        H  0.89622085  0.46921738  0.23862572     0.08000
H531        H  0.95103648  0.44893107  0.24988429     0.08000
H532        H  0.90481307  0.42331654  0.27290176     0.04700
C533        C  0.79961141  0.40291657  0.08334236    -0.21100
C534        C  0.84170106  0.42048696  0.08174343    -0.07600
C535        C  0.87336254  0.39800651  0.05798585     0.13200
C536        C  0.86633214  0.35551105  0.04596078    -0.21100
C537        C  0.82711656  0.33501575  0.05403511    -0.07600
C538        C  0.79187544  0.36006078  0.06981764     0.13200
C539        C  0.74709537  0.34149557  0.07471195    -0.24500
H540        H  0.77410897  0.42085860  0.09917981     0.14500
H541        H  0.89224608  0.33807163  0.03012498     0.14500
C542        C  0.91157330  0.41938663  0.03869077    -0.24400
H543        H  0.72382948  0.36572843  0.08753069     0.04700
H544        H  0.74826664  0.31340381  0.09709182     0.08000
H545        H  0.73449427  0.33110764  0.04312194     0.08000
H546        H  0.94025020  0.39719667  0.03820009     0.08000
H547        H  0.92021810  0.44899157  0.05554834     0.08000
H548        H  0.90204715  0.42822160  0.00578772     0.04700
C549        C  0.87847375  0.51027690  0.01488825    -0.21100
C550        C  0.84031869  0.50291952  0.03646890    -0.07600
C551        C  0.80204055  0.49607759  0.01159500     0.13200
C552        C  0.80465728  0.49617973  0.96597490    -0.21100
C553        C  0.84483842  0.50261286  0.94513811    -0.07600
C554        C  0.88183051  0.50875249  0.97119118     0.13200
C555        C  0.92714061  0.50914383  0.95531487    -0.24500
H556        H  0.90809347  0.51226882  0.03292159     0.14500
H557        H  0.77564558  0.49061064  0.94696255     0.14500
C558        C  0.75864170  0.48936581  0.03193091    -0.24400
H559        H  0.94157297  0.54149642  0.95924351     0.04700
H560        H  0.92781458  0.49955371  0.92225978     0.08000
H561        H  0.94726756  0.48518110  0.97357922     0.08000
H562        H  0.73534152  0.51460924  0.02020557     0.08000
H563        H  0.76070242  0.49167372  0.06718131     0.08000
H564        H  0.74605053  0.45696170  0.02332432     0.04700
C565        C  0.13429216  0.65592955  0.20004290    -0.21100
C566        C  0.09219936  0.67373623  0.19808719    -0.07600
C567        C  0.05738345  0.64480747  0.19785922     0.13200
C568        C  0.06369639  0.60332370  0.18115666    -0.21100
C569        C  0.10556700  0.58464548  0.18040668    -0.07600
C570        C  0.14064913  0.61071265  0.19518142     0.13200
C571        C  0.18432565  0.59174106  0.20711383    -0.24500
H572        H  0.16187880  0.67681990  0.20553312     0.14500
H573        H  0.03576584  0.58596406  0.16986303     0.14500
C574        C  0.01679079  0.65543876  0.22228825    -0.24400
H575        H  0.21020212  0.61003555  0.19098231     0.04700
H576        H  0.18719462  0.55684651  0.19939908     0.08000
H577        H  0.18949336  0.59517358  0.24201524     0.08000
H578        H  0.99214564  0.62966017  0.21950997     0.08000
H579        H  0.00228420  0.68660395  0.21202320     0.08000
H580        H  0.02549683  0.65843694  0.25658966     0.04700
C581        C  0.19679278  0.64281471  0.07833839    -0.21100
C582        C  0.16121193  0.66920942  0.06582923    -0.07600
C583        C  0.11855234  0.65170745  0.06963536     0.13200
C584        C  0.11332659  0.60922428  0.08531160    -0.21100
C585        C  0.14870977  0.58357953  0.09935293    -0.07600
C586        C  0.19124472  0.60089608  0.09569998     0.13200
C587        C  0.23170324  0.57717634  0.11089703    -0.24500
H588        H  0.22946739  0.65542274  0.07579356     0.14500
H589        H  0.08084772  0.59610638  0.08800935     0.14500
C590        C  0.07763458  0.67721583  0.05841468    -0.24400
H591        H  0.24956693  0.59689298  0.13451962     0.04700
H592        H  0.25410761  0.57264127  0.08374770     0.08000
H593        H  0.22453008  0.54525742  0.12560222     0.08000
H594        H  0.07802940  0.68977202  0.02524384     0.08000
H595        H  0.07361261  0.70452679  0.08087631     0.08000
H596        H  0.04837819  0.65682021  0.06001765     0.04700
C597        C  0.05499954  0.36717069  0.20934558    -0.21100
C598        C  0.07514854  0.33422820  0.18617856    -0.07600
C599        C  0.11904729  0.34031905  0.17507399     0.13200
C600        C  0.13661970  0.38225193  0.17748196    -0.21100
C601        C  0.10956692  0.41825394  0.18591369    -0.07600
C602        C  0.07350213  0.40854670  0.21182936     0.13200
C603        C  0.06265740  0.43488205  0.25012342    -0.24500
H604        H  0.02730840  0.35941864  0.22847325     0.14500
H605        H  0.17019806  0.38730452  0.16919572     0.14500
C606        C  0.14733056  0.30284942  0.16197775    -0.24400
H607        H  0.06880531  0.41510167  0.27940159     0.04700
H608        H  0.02772610  0.44382148  0.24941181     0.08000
H609        H  0.08375114  0.46361393  0.25259512     0.08000
H610        H  0.13349689  0.28788326  0.13293169     0.08000
H611        H  0.14890487  0.27832303  0.18809827     0.08000
H612        H  0.18104332  0.31319770  0.15509874     0.04700
C613        C  0.18931133  0.40484569  0.09139319    -0.21100
C614        C  0.14553409  0.41870918  0.09574777    -0.07600
C615        C  0.11292722  0.39020189  0.07981070     0.13200
C616        C  0.12449421  0.35212767  0.05922965    -0.21100
C617        C  0.16668754  0.33543998  0.06084706    -0.07600
C618        C  0.20006725  0.36252187  0.07692576     0.13200
C619        C  0.24639357  0.34663931  0.08067075    -0.24500
H620        H  0.21486120  0.42551125  0.10344053     0.14500
H621        H  0.09887164  0.33283765  0.04517956     0.14500
C622        C  0.06545286  0.39513904  0.08732020    -0.24400
H623        H  0.26797155  0.37161251  0.09454231     0.04700
H624        H  0.25890842  0.33828018  0.04868660     0.08000
H625        H  0.24809746  0.31760328  0.10185192     0.08000
H626        H  0.05308347  0.42306394  0.06969717     0.08000
H627        H  0.05975667  0.39678822  0.12175220     0.08000
H628        H  0.04588428  0.36734788  0.07596221     0.04700
C629        C  0.02460817  0.47802016  0.14538029    -0.21100
C630        C  0.04485285  0.50053080  0.17772166    -0.07600
C631        C  0.01678021  0.51836727  0.20921833     0.13200
C632        C  0.97054279  0.51702645  0.20269288    -0.21100
C633        C  0.95123880  0.49216275  0.16950875    -0.07600
C634        C  0.98079152  0.46793387  0.14460249     0.13200
C635        C  0.97107076  0.42841997  0.11903479    -0.24500
H636        H  0.04446118  0.46540028  0.12124079     0.14500
H637        H  0.94955840  0.53411443  0.22453923     0.14500
C638        C  0.03404263  0.53771276  0.24983486    -0.24400
H639        H  0.98800572  0.40013161  0.13394057     0.04700
H640        H  0.98327802  0.43318976  0.08633391     0.08000
H641        H  0.93749663  0.41878675  0.11713873     0.08000
H642        H  0.07011537  0.53846425  0.25067586     0.08000
H643        H  0.02279455  0.51830888  0.27750574     0.08000
H644        H  0.02148916  0.57105301  0.25370302     0.04700
C645        C  0.09586901  0.64450668  0.80651076    -0.21100
C646        C  0.06899669  0.66512095  0.83646195    -0.07600
C647        C  0.05453187  0.64204949  0.87233317     0.13200
C648        C  0.06770945  0.59957279  0.87747274    -0.21100
C649        C  0.09666015  0.57953885  0.84998799    -0.07600
C650        C  0.11075644  0.60191979  0.81345633     0.13200
C651        C  0.14237701  0.58253427  0.78251250    -0.24500
H652        H  0.10698623  0.66225208  0.77874394     0.14500
H653        H  0.05789611  0.58306619  0.90538881     0.14500
C654        C  0.02592357  0.66140045  0.90613532    -0.24400
H655        H  0.17212888  0.60263289  0.78139048     0.04700
H656        H  0.12721597  0.58188313  0.75021547     0.08000
H657        H  0.15222933  0.54894518  0.79136639     0.08000
H658        H  0.99587338  0.67477354  0.89109853     0.08000
H659        H  0.04359047  0.68705170  0.92358552     0.08000
H660        H  0.01627881  0.63692163  0.93031200     0.04700
C661        C  0.19338554  0.60672718  0.89497971    -0.21100
C662        C  0.16137776  0.58201281  0.91575448    -0.07600
C663        C  0.13832192  0.60235987  0.94937007     0.13200
C664        C  0.14612733  0.64519840  0.95973233    -0.21100
C665        C  0.17642746  0.66995685  0.93874644    -0.07600
C666        C  0.20149654  0.65037680  0.90634261     0.13200
C667        C  0.23497117  0.67586299  0.88238269    -0.24500
H668        H  0.21101056  0.59230314  0.86885819     0.14500
H669        H  0.12683675  0.66019998  0.98394027     0.14500
C670        C  0.10335616  0.58200158  0.97465951    -0.24400
H671        H  0.25040822  0.65621165  0.85708505     0.04700
H672        H  0.26099599  0.68647685  0.90466715     0.08000
H673        H  0.21935356  0.70473704  0.86705194     0.08000
H674        H  0.09319103  0.55187225  0.96040749     0.08000
H675        H  0.07411080  0.60337703  0.97592761     0.08000
H676        H  0.11562796  0.57658023  0.00751410     0.04700
C677        C  0.06145992  0.34690067  0.87713850    -0.21100
C678        C  0.05955324  0.33365530  0.83452404    -0.07600
C679        C  0.07480361  0.36239273  0.80243476     0.13200
C680        C  0.09043533  0.40350620  0.81418481    -0.21100
C681        C  0.09111777  0.41704285  0.85695913    -0.07600
C682        C  0.07541676  0.38808927  0.88869108     0.13200
C683        C  0.07292576  0.39897965  0.93512033    -0.24500
H684        H  0.05062383  0.32514893  0.90208751     0.14500
H685        H  0.10368215  0.42476500  0.78999964     0.14500
C686        C  0.07480318  0.35053902  0.75594703    -0.24400
H687        H  0.05808878  0.37273751  0.95441596     0.04700
H688        H  0.05196330  0.42769339  0.93907213     0.08000
H689        H  0.10585348  0.40350689  0.94848767     0.08000
H690        H  0.04108636  0.34375264  0.74501076     0.08000
H691        H  0.09595029  0.32166937  0.75108750     0.08000
H692        H  0.08741916  0.37719936  0.73564988     0.04700
C693        C  0.19092294  0.36501708  0.95876774    -0.21100
C694        C  0.17224065  0.33260914  0.93393487    -0.07600
C695        C  0.16964666  0.33960277  0.88937066     0.13200
C696        C  0.17440903  0.38202505  0.87338911    -0.21100
C697        C  0.17810564  0.41683580  0.90181997    -0.07600
C698        C  0.19798933  0.40614077  0.94134170     0.13200
C699        C  0.23856981  0.42830993  0.95585571    -0.24500
H700        H  0.20532750  0.35665022  0.98929757     0.14500
H701        H  0.17043511  0.38840580  0.83959899     0.14500
C702        C  0.16241067  0.30277225  0.85909070    -0.24400
H703        H  0.26670892  0.40566059  0.95300672     0.04700
H704        H  0.23609770  0.43722836  0.98991225     0.08000
H705        H  0.24567502  0.45655654  0.93516948     0.08000
H706        H  0.13150315  0.28641931  0.86668255     0.08000
H707        H  0.18960794  0.27897086  0.86225250     0.08000
H708        H  0.16068685  0.31418580  0.82539867     0.04700
C709        C  0.12729227  0.48262918  0.98253733    -0.21100
C710        C  0.16539284  0.49653177  0.96314221    -0.07600
C711        C  0.19853025  0.51354655  0.98984750     0.13200
C712        C  0.19349981  0.51064232  0.03460737    -0.21100
C713        C  0.15275884  0.50126642  0.05254504    -0.07600
C714        C  0.11817815  0.49151986  0.02470454     0.13200
C715        C  0.07091364  0.49830839  0.03580018    -0.24500
H716        H  0.10113855  0.47233259  0.96301358     0.14500
H717        H  0.22101503  0.51651688  0.05504699     0.14500
C718        C  0.23927249  0.53360888  0.97272106    -0.24400
H719        H  0.05077970  0.47148623  0.02372626     0.04700
H720        H  0.05751773  0.52738673  0.01937822     0.08000
H721        H  0.06628688  0.50439589  0.06990410     0.08000
H722        H  0.24012011  0.53326089  0.93737636     0.08000
H723        H  0.26831924  0.51576233  0.98527818     0.08000
H724        H  0.24105442  0.56780792  0.98322201     0.04700
C725        C  0.03041513  0.49192434  0.79930226    -0.21100
C726        C  0.04650170  0.50096515  0.84088335    -0.07600
C727        C  0.01575103  0.51400242  0.87133074     0.13200
C728        C  0.97364769  0.52407262  0.85880795    -0.21100
C729        C  0.95502663  0.50604716  0.82248477    -0.07600
C730        C  0.98442575  0.49108089  0.79066602     0.13200
C731        C  0.96848989  0.47420127  0.74849179    -0.24500
H732        H  0.05296640  0.48255361  0.77470932     0.14500
H733        H  0.95401588  0.54264453  0.88008769     0.14500
C734        C  0.02381835  0.51105966  0.91833488    -0.24400
H735        H  0.97979848  0.44031476  0.74406652     0.04700
H736        H  0.98169924  0.49436049  0.72223364     0.08000
H737        H  0.93242453  0.47497601  0.74617895     0.08000
H738        H  0.05807748  0.50578720  0.92483295     0.08000
H739        H  0.00625908  0.48288155  0.93114609     0.08000
H740        H  0.01253841  0.54047711  0.93512275     0.04700
C741        C  0.61119831  0.91741342  0.86778298    -0.21100
C742        C  0.59263547  0.88893296  0.83886774    -0.07600
C743        C  0.61622661  0.87909091  0.80156496     0.13200
C744        C  0.65633887  0.90029816  0.79376229    -0.21100
C745        C  0.67622947  0.92617257  0.82531481    -0.07600
C746        C  0.65421658  0.93088223  0.86476350     0.13200
C747        C  0.67614296  0.94507212  0.90597349    -0.24500
H748        H  0.59274031  0.92692971  0.89491830     0.14500
H749        H  0.67358772  0.89404988  0.76447041     0.14500
C750        C  0.60031991  0.84506771  0.77125286    -0.24400
H751        H  0.65333572  0.94644256  0.93290589     0.04700
H752        H  0.69059000  0.97755747  0.90419185     0.08000
H753        H  0.70209767  0.92134373  0.91486598     0.08000
H754        H  0.56753974  0.85344340  0.75859678     0.08000
H755        H  0.59854661  0.81345915  0.78827896     0.08000
H756        H  0.62255806  0.84122126  0.74383238     0.04700
C757        C  0.65336724  0.84053139  0.94753058    -0.21100
C758        C  0.67996528  0.80975344  0.92878045    -0.07600
C759        C  0.66194974  0.78250935  0.89727085     0.13200
C760        C  0.61798021  0.78923965  0.88412282    -0.21100
C761        C  0.59188275  0.82159144  0.90296943    -0.07600
C762        C  0.61008692  0.84600691  0.93615770     0.13200
C763        C  0.58550304  0.87949621  0.95990989    -0.24500
H764        H  0.66734767  0.86288347  0.96983880     0.14500
H765        H  0.60447036  0.77038509  0.85829252     0.14500
C766        C  0.68942646  0.74866417  0.87593095    -0.24400
H767        H  0.60631238  0.90745431  0.96742788     0.04700
H768        H  0.57547930  0.86388993  0.98980592     0.08000
H769        H  0.55675493  0.89256282  0.94260962     0.08000
H770        H  0.70146722  0.72469613  0.90003616     0.08000
H771        H  0.71762361  0.76419114  0.86031853     0.08000
H772        H  0.67059582  0.73104276  0.85124849     0.04700
C773        C  0.40645607  0.91597514  0.87034924    -0.21100
C774        C  0.42930993  0.89413229  0.83851950    -0.07600
C775        C  0.40980800  0.88957851  0.79776200     0.13200
C776        C  0.36634892  0.90309415  0.79129576    -0.21100
C777        C  0.34221840  0.92196746  0.82423351    -0.07600
C778        C  0.36341531  0.93003246  0.86395989     0.13200
C779        C  0.34071925  0.95097083  0.90105215    -0.24500
H780        H  0.42145936  0.91954358  0.90146753     0.14500
H781        H  0.35093239  0.89787622  0.76052681     0.14500
C782        C  0.43262774  0.86740384  0.76162840    -0.24400
H783        H  0.36195586  0.95235467  0.92992585     0.04700
H784        H  0.31139630  0.93219576  0.90958685     0.08000
H785        H  0.33140825  0.98480092  0.89261023     0.08000
H786        H  0.46623602  0.85687472  0.77007111     0.08000
H787        H  0.43437781  0.88998164  0.73393350     0.08000
H788        H  0.41406163  0.83830404  0.75208960     0.04700
C789        C  0.38673660  0.81732961  0.86775127    -0.21100
C790        C  0.42422811  0.81665532  0.89439090    -0.07600
C791        C  0.41575484  0.80540286  0.93696691     0.13200
C792        C  0.37744162  0.82091382  0.95528044    -0.21100
C793        C  0.34028022  0.82716452  0.93007337    -0.07600
C794        C  0.34447688  0.82145883  0.88539687     0.13200
C795        C  0.30501541  0.82060728  0.85669506    -0.24500
H796        H  0.39042402  0.81607498  0.83357202     0.14500
H797        H  0.37474801  0.82159833  0.98917786     0.14500
C798        C  0.43330168  0.76321315  0.95458863    -0.24400
H799        H  0.31407079  0.81666216  0.82274074     0.04700
H800        H  0.28647046  0.85137065  0.85967596     0.08000
H801        H  0.28389470  0.79316958  0.86595097     0.08000
H802        H  0.44430609  0.76719511  0.98801756     0.08000
H803        H  0.46021763  0.75035853  0.93491926     0.08000
H804        H  0.40717652  0.73860458  0.95402342     0.04700
C805        C  0.62151320  0.85544126  0.17313534    -0.21100
C806        C  0.59009206  0.88889872  0.17649980    -0.07600
C807        C  0.60340389  0.92312700  0.20370038     0.13200
C808        C  0.64792752  0.93365095  0.20626574    -0.21100
C809        C  0.67988386  0.90486557  0.19152679    -0.07600
C810        C  0.66642980  0.86323335  0.17905912     0.13200
C811        C  0.69900219  0.82768307  0.17074743    -0.24500
H812        H  0.61103573  0.82332444  0.16521948     0.14500
H813        H  0.65782930  0.96285130  0.22255235     0.14500
C814        C  0.57464505  0.94213438  0.23712234    -0.24400
H815        H  0.68277268  0.79723987  0.16126687     0.04700
H816        H  0.71839865  0.82075860  0.20015544     0.08000
H817        H  0.72105614  0.83765767  0.14470395     0.08000
H818        H  0.58976554  0.93639043  0.26905653     0.08000
H819        H  0.54266615  0.92592550  0.23790346     0.08000
H820        H  0.57139201  0.97769574  0.23235656     0.04700
C821        C  0.60219353  0.81079214  0.08804699    -0.21100
C822        C  0.58393598  0.85252928  0.08721694    -0.07600
C823        C  0.60406277  0.88583378  0.06420530     0.13200
C824        C  0.64606981  0.87872274  0.04941168    -0.21100
C825        C  0.66666792  0.83776385  0.05336883    -0.07600
C826        C  0.64332048  0.80268803  0.07116386     0.13200
C827        C  0.66124764  0.75703863  0.07382790    -0.24500
H828        H  0.58508232  0.78502450  0.10431918     0.14500
H829        H  0.66233209  0.90537190  0.03370817     0.14500
C830        C  0.58011456  0.92719336  0.05148238    -0.24400
H831        H  0.63756914  0.73425795  0.08804737     0.04700
H832        H  0.69100065  0.75585109  0.09421557     0.08000
H833        H  0.66875363  0.74529433  0.04133259     0.08000
H834        H  0.55371473  0.93489048  0.07355469     0.08000
H835        H  0.56214977  0.92464649  0.02123689     0.08000
H836        H  0.60309201  0.95443034  0.04800579     0.04700
C837        C  0.36030712  0.95421061  0.12958293    -0.21100
C838        C  0.34217717  0.94889364  0.17012546    -0.07600
C839        C  0.37008045  0.93542034  0.20449076     0.13200
C840        C  0.41306231  0.92265435  0.19549397    -0.21100
C841        C  0.42943544  0.92611371  0.15404483    -0.07600
C842        C  0.40464662  0.94913767  0.12338783     0.13200
C843        C  0.42447060  0.97320201  0.08696403    -0.24500
H844        H  0.34040147  0.96345692  0.10226825     0.14500
H845        H  0.43300955  0.90730799  0.22017351     0.14500
C846        C  0.35485694  0.93129274  0.24989255    -0.24400
H847        H  0.41837302  0.00788608  0.08979420     0.04700
H848        H  0.40864040  0.96463081  0.05639818     0.08000
H849        H  0.46018886  0.97002093  0.08751114     0.08000
H850        H  0.32866057  0.90688652  0.25204867     0.08000
H851        H  0.34292596  0.96320171  0.26121180     0.08000
H852        H  0.38158094  0.92054732  0.27182274     0.04700
C853        C  0.34422043  0.84707284  0.11299771    -0.21100
C854        C  0.33802594  0.82249621  0.07618501    -0.07600
C855        C  0.37279340  0.79498245  0.06423309     0.13200
C856        C  0.41557708  0.80679293  0.07653414    -0.21100
C857        C  0.42195296  0.84027725  0.10655308    -0.07600
C858        C  0.38551718  0.84786822  0.13246478     0.13200
C859        C  0.38791543  0.83150870  0.17784535    -0.24500
H860        H  0.31617343  0.85970917  0.12967447     0.14500
H861        H  0.44273354  0.78856950  0.06440123     0.14500
C862        C  0.36460516  0.75294244  0.04155958    -0.24400
H863        H  0.36297999  0.84753432  0.19774245     0.04700
H864        H  0.38144283  0.79616572  0.17828634     0.08000
H865        H  0.42076427  0.83607612  0.19205291     0.08000
H866        H  0.34725093  0.75814324  0.01076448     0.08000
H867        H  0.34405093  0.73209044  0.06197797     0.08000
H868        H  0.39537309  0.73493221  0.03586394     0.04700
C869        C  0.52190704  0.80196906  0.02662664    -0.21100
C870        C  0.50195102  0.83991071  0.04322674    -0.07600
C871        C  0.48296147  0.86852173  0.01257882     0.13200
C872        C  0.48536515  0.86081909  0.96895962    -0.21100
C873        C  0.50669706  0.82485371  0.95198579    -0.07600
C874        C  0.52531541  0.79448387  0.98174625     0.13200
C875        C  0.54723949  0.75346760  0.96751656    -0.24500
H876        H  0.53451308  0.77762248  0.04856530     0.14500
H877        H  0.47108191  0.88438004  0.94718390     0.14500
C878        C  0.46110296  0.90905055  0.02490399    -0.24400
H879        H  0.53086474  0.72514159  0.98210112     0.04700
H880        H  0.58189991  0.75345422  0.97795292     0.08000
H881        H  0.54568990  0.74974418  0.93239680     0.08000
H882        H  0.48546724  0.92850437  0.04183990     0.08000
H883        H  0.43279500  0.90010634  0.04436975     0.08000
H884        H  0.44877118  0.92874760  0.99736023     0.04700
C885        C  0.60706611  0.12121981  0.81569354    -0.21100
C886        C  0.58688540  0.09264981  0.84478474    -0.07600
C887        C  0.61167146  0.05720146  0.86032603     0.13200
C888        C  0.65357801  0.05017653  0.84602850    -0.21100
C889        C  0.67587022  0.08050474  0.82171035    -0.07600
C890        C  0.65169344  0.11627165  0.80480596     0.13200
C891        C  0.67235879  0.14920335  0.77601191    -0.24500
H892        H  0.58859822  0.14882382  0.80346551     0.14500
H893        H  0.66987912  0.02102459  0.85609445     0.14500
C894        C  0.59664774  0.02693352  0.89399551    -0.24400
H895        H  0.64885321  0.17508403  0.76616277     0.04700
H896        H  0.68423925  0.13318040  0.74673499     0.08000
H897        H  0.69999612  0.16469692  0.79285779     0.08000
H898        H  0.58774627  0.99637686  0.87889220     0.08000
H899        H  0.56855003  0.04036376  0.91019625     0.08000
H900        H  0.62264681  0.02109322  0.91826047     0.04700
C901        C  0.60544958  0.17842696  0.89658025    -0.21100
C902        C  0.58140678  0.14633566  0.91764517    -0.07600
C903        C  0.60220001  0.12063819  0.94984266     0.13200
C904        C  0.64696038  0.12555428  0.95730704    -0.21100
C905        C  0.67097288  0.15776705  0.93628028    -0.07600
C906        C  0.64978877  0.18474654  0.90563839     0.13200
C907        C  0.67383909  0.21931990  0.88152415    -0.24500
H908        H  0.58976384  0.19736156  0.87138234     0.14500
H909        H  0.66282878  0.10535148  0.98145164     0.14500
C910        C  0.57854205  0.08784234  0.97701732    -0.24400
H911        H  0.65281117  0.23531997  0.85686977     0.04700
H912        H  0.70228622  0.20473653  0.86527275     0.08000
H913        H  0.68500770  0.24475595  0.90377374     0.08000
H914        H  0.59347131  0.05530902  0.97438881     0.08000
H915        H  0.54342637  0.08642454  0.96928094     0.08000
H916        H  0.58200841  0.09508850  0.01112813     0.04700
C917        C  0.39731901  0.13654783  0.81657327    -0.21100
C918        C  0.42299845  0.09846237  0.82427866    -0.07600
C919        C  0.40307337  0.05899930  0.81091050     0.13200
C920        C  0.35790312  0.05741056  0.80550224    -0.21100
C921        C  0.33146905  0.09405980  0.80845878    -0.07600
C922        C  0.35148392  0.13481762  0.81044982     0.13200
C923        C  0.32458530  0.17580788  0.80969280    -0.24500
H924        H  0.41219465  0.16787318  0.82106331     0.14500
H925        H  0.34265849  0.02648272  0.79925535     0.14500
C926        C  0.42663761  0.01895501  0.79764931    -0.24400
H927        H  0.34513631  0.20490287  0.81377462     0.04700
H928        H  0.30057987  0.17508011  0.83589547     0.08000
H929        H  0.30691224  0.17883141  0.77871913     0.08000
H930        H  0.43665854  0.99984897  0.82592860     0.08000
H931        H  0.45256164  0.02806514  0.77522202     0.08000
H932        H  0.40550227  0.99678652  0.77910945     0.04700
C933        C  0.33945490  0.12298332  0.91524340    -0.21100
C934        C  0.32724469  0.16561599  0.92444165    -0.07600
C935        C  0.35862151  0.19866921  0.91954509     0.13200
C936        C  0.40172319  0.18705361  0.90828942    -0.21100
C937        C  0.41482877  0.14321831  0.90583737    -0.07600
C938        C  0.38293466  0.11099632  0.91226478     0.13200
C939        C  0.39379153  0.06405626  0.92053945    -0.24500
H940        H  0.31557677  0.09743061  0.91683801     0.14500
H941        H  0.42551443  0.21206017  0.90255135     0.14500
C942        C  0.34750256  0.24557917  0.92684243    -0.24400
H943        H  0.41086343  0.04900773  0.89375126     0.04700
H944        H  0.41346719  0.06167398  0.95014999     0.08000
H945        H  0.36437825  0.04442475  0.92632944     0.08000
H946        H  0.33712394  0.25013224  0.96033378     0.08000
H947        H  0.32092761  0.25605390  0.90465971     0.08000
H948        H  0.37592796  0.26677160  0.92128306     0.04700
C949        C  0.52435754  0.01235968  0.80954331    -0.21100
C950        C  0.50827427  0.03284230  0.84640647    -0.07600
C951        C  0.49877299  0.00563685  0.88225313     0.13200
C952        C  0.50168578  0.96060725  0.87868265    -0.21100
C953        C  0.51145786  0.94017190  0.84038066    -0.07600
C954        C  0.52347030  0.96657754  0.80520967     0.13200
C955        C  0.53308460  0.94790864  0.76233261    -0.24500
H956        H  0.53385349  0.03227583  0.78260945     0.14500
H957        H  0.49595822  0.94083843  0.90670323     0.14500
C958        C  0.48897109  0.02154200  0.92634330    -0.24400
H959        H  0.51165410  0.96359199  0.73782589     0.04700
H960        H  0.52660871  0.91281494  0.76148550     0.08000
H961        H  0.56760175  0.95379278  0.75416093     0.08000
H962        H  0.45846395  0.00654082  0.93748431     0.08000
H963        H  0.48670423  0.05706887  0.92807993     0.08000
H964        H  0.51483002  0.01038585  0.94903540     0.04700
C965        C  0.60758312  0.08700859  0.11652298    -0.21100
C966        C  0.58358495  0.10241268  0.15113905    -0.07600
C967        C  0.60075116  0.09582104  0.19284114     0.13200
C968        C  0.64212004  0.07629563  0.19819894    -0.21100
C969        C  0.66713633  0.06311993  0.16307227    -0.07600
C970        C  0.64892902  0.06822786  0.12146976     0.13200
C971        C  0.67140461  0.05295572  0.08165078    -0.24500
H972        H  0.59344042  0.08955981  0.08489314     0.14500
H973        H  0.65522913  0.07223958  0.23024661     0.14500
C974        C  0.57751319  0.11060246  0.23227999    -0.24400
H975        H  0.65160372  0.05943895  0.05237616     0.04700
H976        H  0.67725784  0.01742661  0.08363134     0.08000
H977        H  0.70259922  0.07005801  0.07770127     0.08000
H978        H  0.57003943  0.08204064  0.25261049     0.08000
H979        H  0.54684096  0.12845049  0.22515669     0.08000
H980        H  0.59880025  0.13270228  0.25064319     0.04700
C981        C  0.59254047  0.17099865  0.05186333    -0.21100
C982        C  0.58193341  0.17643429  0.09464768    -0.07600
C983        C  0.61735864  0.18695580  0.12265462     0.13200
C984        C  0.66083227  0.18184359  0.10818481    -0.21100
C985        C  0.66897244  0.17456253  0.06469899    -0.07600
C986        C  0.63369969  0.18108740  0.03697555     0.13200
C987        C  0.63495406  0.21762029  0.00519716    -0.24500
H988        H  0.56919247  0.15945052  0.02944350     0.14500
H989        H  0.68792170  0.18490584  0.13034099     0.14500
C990        C  0.61038333  0.20182742  0.16760676    -0.24400
H991        H  0.61359273  0.20995823  0.97814919     0.04700
H992        H  0.66797978  0.22433434  0.99354456     0.08000
H993        H  0.62258778  0.24774094  0.02016705     0.08000
H994        H  0.57537729  0.20321117  0.17583971     0.08000
H995        H  0.62383564  0.23485054  0.17118688     0.08000
H996        H  0.62779593  0.17993092  0.19039544     0.04700
C997        C  0.35062899  0.12462226  0.20992013    -0.21100
C998        C  0.32962259  0.09346411  0.18433822    -0.07600
C999        C  0.35520180  0.07295634  0.15299371     0.13200
C1000       C  0.40046493  0.07768697  0.15282928    -0.21100
C1001       C  0.42039839  0.11212996  0.17314841    -0.07600
C1002       C  0.39517792  0.13561062  0.20312366     0.13200
C1003       C  0.41547044  0.17147970  0.22832744    -0.24500
H1004       H  0.33200208  0.14155542  0.23381183     0.14500
H1005       H  0.41936003  0.06088674  0.12967095     0.14500
C1006       C  0.33436556  0.05464318  0.11371550    -0.24400
H1007       H  0.39152283  0.18716630  0.24966477     0.04700
H1008       H  0.42853830  0.19653346  0.20666929     0.08000
H1009       H  0.44265326  0.15830554  0.24825806     0.08000
H1010       H  0.31021985  0.07838809  0.10082420     0.08000
H1011       H  0.31705583  0.02519503  0.12026187     0.08000
H1012       H  0.35823463  0.04649587  0.08901721     0.04700
C1013       C  0.34454575  0.20096294  0.08948059    -0.21100
C1014       C  0.33091849  0.16742545  0.06224559    -0.07600
C1015       C  0.35900558  0.13195315  0.05501704     0.13200
C1016       C  0.39889615  0.13018111  0.07592788    -0.21100
C1017       C  0.41388898  0.16456455  0.10078732    -0.07600
C1018       C  0.38633883  0.20044262  0.10817613     0.13200
C1019       C  0.40106358  0.23962895  0.13230829    -0.24500
H1020       H  0.32315787  0.22843006  0.09506000     0.14500
H1021       H  0.42092401  0.10335996  0.06959741     0.14500
C1022       C  0.34978361  0.09793285  0.02214555    -0.24400
H1023       H  0.39834451  0.26870574  0.11125606     0.04700
H1024       H  0.43543639  0.23677829  0.14318191     0.08000
H1025       H  0.38003094  0.24446440  0.16046643     0.08000
H1026       H  0.34408646  0.11473974  0.99203767     0.08000
H1027       H  0.32071707  0.07850486  0.02949209     0.08000
H1028       H  0.37755953  0.07510187  0.01809508     0.04700
C1029       C  0.52003220  0.03303642  0.12794866    -0.21100
C1030       C  0.50228971  0.05638116  0.16190345    -0.07600
C1031       C  0.48936645  0.03212180  0.19825524     0.13200
C1032       C  0.49209253  0.98617409  0.19718571    -0.21100
C1033       C  0.51522661  0.96429770  0.16469226    -0.07600
C1034       C  0.53564863  0.99080363  0.13426875     0.13200
C1035       C  0.58391182  0.98698161  0.12832946    -0.24500
H1036       H  0.53004328  0.05031674  0.09956613     0.14500
H1037       H  0.47894788  0.96778071  0.22344329     0.14500
C1038       C  0.47367186  0.05295632  0.23841714    -0.24400
H1039       H  0.59348683  0.00367506  0.09854544     0.04700
H1040       H  0.59625521  0.95369668  0.12680030     0.08000
H1041       H  0.60048509  0.00221137  0.15582221     0.08000
H1042       H  0.43927956  0.04401329  0.24404587     0.08000
H1043       H  0.47624493  0.08865224  0.23712560     0.08000
H1044       H  0.49398328  0.04135816  0.26581461     0.04700
C1045       C  0.46723824  0.14634788  0.98718079    -0.21100
C1046       C  0.49488896  0.16595741  0.95766699    -0.07600
C1047       C  0.51582952  0.20486642  0.97255322     0.13200
C1048       C  0.51576071  0.21389046  0.01807271    -0.21100
C1049       C  0.48905434  0.18819516  0.04538672    -0.07600
C1050       C  0.45462363  0.17117885  0.02166805     0.13200
C1051       C  0.41960399  0.20422037  0.00932942    -0.24500
H1052       H  0.44874915  0.11804410  0.97929124     0.14500
H1053       H  0.53677368  0.23842087  0.03127555     0.14500
C1054       C  0.53020230  0.23933881  0.94176149    -0.24400
H1055       H  0.43054014  0.22585308  0.98316813     0.04700
H1056       H  0.41179709  0.22612816  0.03583169     0.08000
H1057       H  0.38977176  0.18772206  0.99856877     0.08000
H1058       H  0.52597506  0.22904676  0.90819370     0.08000
H1059       H  0.56433614  0.24869410  0.94721138     0.08000
H1060       H  0.50959963  0.26867386  0.94617799     0.04700
C1061       C  0.95857769  0.80559183  0.63510043    -0.21100
C1062       C  0.93117986  0.81000199  0.66997659    -0.07600
C1063       C  0.88587486  0.81279346  0.66132278     0.13200
C1064       C  0.87078547  0.81502688  0.61812633    -0.21100
C1065       C  0.90012684  0.81412818  0.58333966    -0.07600
C1066       C  0.94181220  0.79799930  0.59406693     0.13200
C1067       C  0.95858546  0.75800447  0.57266447    -0.24500
H1068       H  0.99286131  0.80500876  0.64037190     0.14500
H1069       H  0.83648625  0.82016356  0.61168958     0.14500
C1070       C  0.85407979  0.81649919  0.69721652    -0.24400
H1071       H  0.95806801  0.73026881  0.59548031     0.04700
H1072       H  0.99242393  0.76272803  0.56234619     0.08000
H1073       H  0.93752963  0.74870597  0.54535426     0.08000
H1074       H  0.86143981  0.84565243  0.71636204     0.08000
H1075       H  0.85665042  0.78727275  0.71805975     0.08000
H1076       H  0.82004891  0.81945066  0.68513341     0.04700
C1077       C  0.89463954  0.91317391  0.60291313    -0.21100
C1078       C  0.85725855  0.89955532  0.58132152    -0.07600
C1079       C  0.81648898  0.90444377  0.60109520     0.13200
C1080       C  0.81456110  0.92256295  0.64192150    -0.21100
C1081       C  0.85245630  0.93295470  0.66537883    -0.07600
C1082       C  0.89369371  0.92644944  0.64539047     0.13200
C1083       C  0.93827794  0.92909709  0.66632142    -0.24500
H1084       H  0.92582515  0.90919698  0.58787184     0.14500
H1085       H  0.78286633  0.92636290  0.65632007     0.14500
C1086       C  0.77487553  0.88783835  0.58171392    -0.24400
H1087       H  0.95638200  0.89851125  0.66054876     0.04700
H1088       H  0.93896779  0.93359788  0.70102416     0.08000
H1089       H  0.95737692  0.95510883  0.65097317     0.08000
H1090       H  0.77960053  0.87328165  0.54989942     0.08000
H1091       H  0.75081672  0.91478243  0.57853817     0.08000
H1092       H  0.76117882  0.86255291  0.60297102     0.04700
C1093       C  0.87691909  0.92994362  0.40242588    -0.21100
C1094       C  0.84740001  0.90181123  0.42123383    -0.07600
C1095       C  0.80841337  0.89260919  0.39859445     0.13200
C1096       C  0.80094910  0.91099323  0.35742333    -0.21100
C1097       C  0.83325013  0.93523787  0.33666068    -0.07600
C1098       C  0.87295737  0.94279245  0.35962640     0.13200
C1099       C  0.91379191  0.96002002  0.33912039    -0.24500
H1100       H  0.90572139  0.93849841  0.42016417     0.14500
H1101       H  0.77091845  0.90398200  0.34052581     0.14500
C1102       C  0.77465710  0.86282710  0.41659661    -0.24400
H1103       H  0.94071226  0.96442394  0.36246742     0.04700
H1104       H  0.90784180  0.99169897  0.32334276     0.08000
H1105       H  0.92574506  0.93643106  0.31531369     0.08000
H1106       H  0.78353555  0.85037762  0.44887016     0.08000
H1107       H  0.77055000  0.83467861  0.39517587     0.08000
H1108       H  0.74312169  0.88047867  0.41886343     0.04700
C1109       C  0.88678038  0.80421353  0.38977195    -0.21100
C1110       C  0.91014645  0.83193190  0.41731324    -0.07600
C1111       C  0.94696211  0.85283963  0.40039482     0.13200
C1112       C  0.95952819  0.84547894  0.35857024    -0.21100
C1113       C  0.93699826  0.81876302  0.33100687    -0.07600
C1114       C  0.89973979  0.79753438  0.34675118     0.13200
C1115       C  0.87237928  0.77029529  0.31765565    -0.24500
H1116       H  0.85752392  0.78905378  0.40144588     0.14500
H1117       H  0.98622176  0.86300091  0.34625665     0.14500
C1118       C  0.97353361  0.88467908  0.42445568    -0.24400
H1119       H  0.84370084  0.75701661  0.33439723     0.04700
H1120       H  0.89209027  0.74274413  0.30566310     0.08000
H1121       H  0.86048472  0.79028118  0.29018059     0.08000
H1122       H  0.00435336  0.86867758  0.43339805     0.08000
H1123       H  0.95750695  0.89515584  0.45337224     0.08000
H1124       H  0.98010898  0.91399458  0.40491687     0.04700
C1125       C  0.89096872  0.18179244  0.60061031    -0.21100
C1126       C  0.91368220  0.14867403  0.57907191    -0.07600
C1127       C  0.95058467  0.12954030  0.59965170     0.13200
C1128       C  0.96192267  0.14234782  0.64082708    -0.21100
C1129       C  0.93882103  0.17411092  0.66297198    -0.07600
C1130       C  0.90307077  0.19473494  0.64229718     0.13200
C1131       C  0.87592541  0.22788123  0.66506830    -0.24500
H1132       H  0.86237426  0.19620269  0.58543297     0.14500
H1133       H  0.98741445  0.12457106  0.65736539     0.14500
C1134       C  0.97749210  0.09341348  0.58123786    -0.24400
H1135       H  0.84842433  0.23992066  0.64477665     0.04700
H1136       H  0.89635749  0.25597350  0.67377433     0.08000
H1137       H  0.86223441  0.21328973  0.69446774     0.08000
H1138       H  0.00896648  0.10653181  0.57047918     0.08000
H1139       H  0.96067248  0.07709965  0.55481018     0.08000
H1140       H  0.98520704  0.06826239  0.60559150     0.04700
C1141       C  0.80006261  0.08282999  0.64784045    -0.21100
C1142       C  0.83390801  0.05915908  0.66823162    -0.07600
C1143       C  0.87236600  0.05052681  0.64500182     0.13200
C1144       C  0.87329328  0.06012338  0.60175853    -0.21100
C1145       C  0.84267356  0.08802518  0.58283487    -0.07600
C1146       C  0.80529853  0.09981227  0.60619457     0.13200
C1147       C  0.77172129  0.13140735  0.58905862    -0.24500
H1148       H  0.77107773  0.09108848  0.66552633     0.14500
H1149       H  0.90115893  0.05005260  0.58374614     0.14500
C1150       C  0.91484436  0.03626097  0.66536127    -0.24400
H1151       H  0.73924082  0.11596894  0.58868710     0.04700
H1152       H  0.77902785  0.14267937  0.55623845     0.08000
H1153       H  0.77043366  0.16016654  0.61002987     0.08000
H1154       H  0.91074721  0.00697823  0.68452947     0.08000
H1155       H  0.92758894  0.06244546  0.68590429     0.08000
H1156       H  0.93986866  0.02839639  0.64154834     0.04700
C1157       C  0.92273441  0.17816140  0.40909913    -0.21100
C1158       C  0.91412632  0.13461654  0.41925059    -0.07600
C1159       C  0.92437774  0.10219568  0.38909354     0.13200
C1160       C  0.94256662  0.11438480  0.35036989    -0.21100
C1161       C  0.94724712  0.15809854  0.33838876    -0.07600
C1162       C  0.93774094  0.19053348  0.36862194     0.13200
C1163       C  0.94165255  0.23807672  0.35845391    -0.24500
H1164       H  0.91487286  0.20289091  0.43218291     0.14500
H1165       H  0.95006289  0.08888535  0.32797775     0.14500
C1166       C  0.91407461  0.05473980  0.39405609    -0.24400
H1167       H  0.93382140  0.25851021  0.38636958     0.04700
H1168       H  0.91863178  0.24724551  0.33227985     0.08000
H1169       H  0.97537791  0.24537049  0.34887995     0.08000
H1170       H  0.89420364  0.04468228  0.36676704     0.08000
H1171       H  0.89546971  0.04646670  0.42279349     0.08000
H1172       H  0.94432307  0.03500177  0.39331737     0.04700
C1173       C  0.82813070  0.13024471  0.38708966    -0.21100
C1174       C  0.82357239  0.10005324  0.42084454    -0.07600
C1175       C  0.80219105  0.06132600  0.40951460     0.13200
C1176       C  0.80625149  0.04558809  0.36789337    -0.21100
C1177       C  0.82301560  0.07191430  0.33561271    -0.07600
C1178       C  0.82915411  0.11627880  0.34434849     0.13200
C1179       C  0.83750053  0.14834599  0.30901444    -0.24500
H1180       H  0.83602933  0.16349746  0.39429556     0.14500
H1181       H  0.79229544  0.01460273  0.35974044     0.14500
C1182       C  0.76220771  0.04734334  0.43215239    -0.24400
H1183       H  0.84227856  0.18155981  0.32145086     0.04700
H1184       H  0.80935692  0.14912541  0.28648605     0.08000
H1185       H  0.86713329  0.13865692  0.29152244     0.08000
H1186       H  0.75582744  0.06856108  0.45960219     0.08000
H1187       H  0.76463293  0.01250178  0.44073084     0.08000
H1188       H  0.73350068  0.05136124  0.41054103     0.04700
C1189       C  0.87679593  0.01886752  0.50499608    -0.21100
C1190       C  0.83608899  0.03863400  0.50529935    -0.07600
C1191       C  0.80036229  0.01153760  0.51515765     0.13200
C1192       C  0.80513867  0.96601783  0.51053576    -0.21100
C1193       C  0.84628696  0.94698406  0.50343656    -0.07600
C1194       C  0.88278061  0.97450770  0.50409395     0.13200
C1195       C  0.92900594  0.95905164  0.50635293    -0.24500
H1196       H  0.90450103  0.03853645  0.51064452     0.14500
H1197       H  0.77703631  0.94553106  0.51374051     0.14500
C1198       C  0.75834724  0.02875054  0.53264158    -0.24400
H1199       H  0.94706579  0.97066097  0.47804928     0.04700
H1200       H  0.93020344  0.92397846  0.50757995     0.08000
H1201       H  0.94511986  0.97131374  0.53569335     0.08000
H1202       H  0.75776619  0.06455368  0.53323877     0.08000
H1203       H  0.75435784  0.01644162  0.56575923     0.08000
H1204       H  0.73038935  0.01758095  0.51305943     0.04700
C1205       C  0.21451090  0.04626172  0.63561164    -0.21100
C1206       C  0.19544573  0.07087336  0.66785949    -0.07600
C1207       C  0.18698910  0.11516895  0.65933349     0.13200
C1208       C  0.18921049  0.13061523  0.61694573    -0.21100
C1209       C  0.19429541  0.10152210  0.58288894    -0.07600
C1210       C  0.21768186  0.06313161  0.59386472     0.13200
C1211       C  0.25719276  0.04971198  0.56960476    -0.24500
H1212       H  0.22988676  0.01558554  0.64365537     0.14500
H1213       H  0.18211243  0.16435344  0.61017438     0.14500
C1214       C  0.17492011  0.14573059  0.69447711    -0.24400
H1215       H  0.28666415  0.05612580  0.58930644     0.04700
H1216       H  0.26062295  0.06914480  0.53994725     0.08000
H1217       H  0.25672850  0.01439244  0.56354610     0.08000
H1218       H  0.20145069  0.14635707  0.71877791     0.08000
H1219       H  0.14449438  0.13482821  0.70971264     0.08000
H1220       H  0.16950199  0.17926918  0.68226313     0.04700
C1221       C  0.07092735  0.12459681  0.64870111    -0.21100
C1222       C  0.06801979  0.16768369  0.66187630    -0.07600
C1223       C  0.08349429  0.20027862  0.63400269     0.13200
C1224       C  0.10125890  0.18825887  0.59427794    -0.21100
C1225       C  0.10542024  0.14454344  0.58186973    -0.07600
C1226       C  0.09108789  0.11227459  0.61132857     0.13200
C1227       C  0.09942765  0.06431283  0.60922361    -0.24500
H1228       H  0.05983662  0.09878909  0.66951264     0.14500
H1229       H  0.11527581  0.21300894  0.57420654     0.14500
C1230       C  0.08291801  0.24731602  0.64613483    -0.24400
H1231       H  0.11136719  0.05176952  0.64060185     0.04700
H1232       H  0.12537880  0.05558563  0.58756513     0.08000
H1233       H  0.06849590  0.04752149  0.60224682     0.08000
H1234       H  0.10344721  0.25208100  0.67504825     0.08000
H1235       H  0.04899849  0.25799933  0.65240180     0.08000
H1236       H  0.09591837  0.26825147  0.62032622     0.04700
C1237       C  0.09842953  0.18788966  0.40727291    -0.21100
C1238       C  0.10467157  0.14458538  0.42050353    -0.07600
C1239       C  0.08956111  0.11143272  0.39311698     0.13200
C1240       C  0.07023042  0.12190955  0.35405295    -0.21100
C1241       C  0.06829715  0.16451201  0.33863803    -0.07600
C1242       C  0.08215440  0.19831948  0.36602819     0.13200
C1243       C  0.08241932  0.24501280  0.35169124    -0.24500
H1244       H  0.10964216  0.21344468  0.42802130     0.14500
H1245       H  0.05912623  0.09553615  0.33420500     0.14500
C1246       C  0.09515252  0.06419224  0.40219918    -0.24400
H1247       H  0.09429684  0.26668232  0.37730111     0.04700
H1248       H  0.04912060  0.25587952  0.34258284     0.08000
H1249       H  0.10437636  0.24881508  0.32404798     0.08000
H1250       H  0.06294653  0.04826670  0.40251292     0.08000
H1251       H  0.11127252  0.05869921  0.43297897     0.08000
H1252       H  0.11539343  0.04937765  0.37711077     0.04700
C1253       C  0.21779265  0.04623180  0.37047413    -0.21100
C1254       C  0.19824482  0.06898359  0.33598235    -0.07600
C1255       C  0.18685068  0.11291263  0.34255347     0.13200
C1256       C  0.18679568  0.12918238  0.38442152    -0.21100
C1257       C  0.19270188  0.10091873  0.41968006    -0.07600
C1258       C  0.22092968  0.06569334  0.41122059     0.13200
C1259       C  0.26724481  0.07052721  0.42668529    -0.24500
H1260       H  0.23534949  0.01634009  0.36438194     0.14500
H1261       H  0.17817064  0.16271921  0.38948313     0.14500
C1262       C  0.17410905  0.14230439  0.30587494    -0.24400
H1263       H  0.28454900  0.03872324  0.42722316     0.04700
H1264       H  0.26868919  0.08547256  0.45876211     0.08000
H1265       H  0.28482454  0.09247771  0.40463570     0.08000
H1266       H  0.14451553  0.12971803  0.28997039     0.08000
H1267       H  0.20105589  0.14382187  0.28263034     0.08000
H1268       H  0.16685379  0.17576316  0.31663177     0.04700
C1269       C  0.03757596  0.11366730  0.48346933    -0.21100
C1270       C  0.05822117  0.14993968  0.49878102    -0.07600
C1271       C  0.03123270  0.18612285  0.50857293     0.13200
C1272       C  0.98491891  0.18134822  0.50863779    -0.21100
C1273       C  0.96504237  0.14192950  0.49666849    -0.07600
C1274       C  0.99328631  0.10819347  0.48305438     0.13200
C1275       C  0.98032617  0.06343260  0.47115959    -0.24500
H1276       H  0.05674187  0.08816656  0.47079188     0.14500
H1277       H  0.96441851  0.20858393  0.51722047     0.14500
C1278       C  0.04959821  0.23044991  0.51478324    -0.24400
H1279       H  0.99515178  0.05459580  0.44032819     0.04700
H1280       H  0.94584003  0.06140848  0.46760040     0.08000
H1281       H  0.99179298  0.03971087  0.49578690     0.08000
H1282       H  0.08527920  0.23078742  0.50990697     0.08000
H1283       H  0.04188495  0.24219268  0.54721303     0.08000
H1284       H  0.03475455  0.25310386  0.49090617     0.04700
C1285       C  0.08193510  0.78375718  0.58808375    -0.21100
C1286       C  0.11905056  0.80922713  0.58133179    -0.07600
C1287       C  0.14683323  0.81237493  0.61759176     0.13200
C1288       C  0.12753460  0.81637725  0.65773219    -0.21100
C1289       C  0.08427952  0.80379893  0.66258471    -0.07600
C1290       C  0.06790745  0.77627058  0.63035502     0.13200
C1291       C  0.04406950  0.73523959  0.64153618    -0.24500
H1292       H  0.06656300  0.76748217  0.56176614     0.14500
H1293       H  0.14663548  0.82635901  0.68513393     0.14500
C1294       C  0.19506277  0.80437526  0.61490052    -0.24400
H1295       H  0.03518063  0.71686248  0.61252546     0.04700
H1296       H  0.01455940  0.74116192  0.66058724     0.08000
H1297       H  0.06609452  0.71416215  0.66113062     0.08000
H1298       H  0.21332120  0.82797282  0.63432405     0.08000
H1299       H  0.20633715  0.80525325  0.58137686     0.08000
H1300       H  0.20258780  0.77171322  0.62834738     0.04700
C1301       C  0.20796720  0.90315645  0.59839976    -0.21100
C1302       C  0.16411159  0.89578364  0.58602694    -0.07600
C1303       C  0.13116109  0.91248124  0.61296734     0.13200
C1304       C  0.14249461  0.93647314  0.64846005    -0.21100
C1305       C  0.18527862  0.93826627  0.66438880    -0.07600
C1306       C  0.21889397  0.92148282  0.63858975     0.13200
C1307       C  0.26556248  0.92130004  0.65354769    -0.24500
H1308       H  0.23365377  0.89121306  0.57813165     0.14500
H1309       H  0.11593283  0.95093857  0.66604245     0.14500
C1310       C  0.08314365  0.90555967  0.60780437    -0.24400
H1311       H  0.28743528  0.90670549  0.62951823     0.04700
H1312       H  0.26886369  0.90195945  0.68348317     0.08000
H1313       H  0.27645086  0.95488694  0.65944193     0.08000
H1314       H  0.07523093  0.88186041  0.58355635     0.08000
H1315       H  0.06671533  0.93709595  0.60101461     0.08000
H1316       H  0.06968886  0.89246574  0.63796092     0.04700
C1317       C  0.07817701  0.86982624  0.39952790    -0.21100
C1318       C  0.10043520  0.83581646  0.41990344    -0.07600
C1319       C  0.10680363  0.79708569  0.39685054     0.13200
C1320       C  0.08893109  0.79339066  0.35498341    -0.21100
C1321       C  0.06941778  0.82936821  0.33375726    -0.07600
C1322       C  0.06760136  0.86936470  0.35612597     0.13200
C1323       C  0.05644575  0.91277519  0.33517667    -0.24500
H1324       H  0.07099244  0.89834325  0.41751854     0.14500
H1325       H  0.09248053  0.76317579  0.33801500     0.14500
C1326       C  0.13395319  0.76065956  0.41556928    -0.24400
H1327       H  0.05679417  0.93968301  0.35812471     0.04700
H1328       H  0.02370274  0.91393503  0.32019669     0.08000
H1329       H  0.08093634  0.92016497  0.31058231     0.08000
H1330       H  0.11975608  0.74895068  0.44584723     0.08000
H1331       H  0.16740879  0.77230697  0.42215105     0.08000
H1332       H  0.13621310  0.73290352  0.39339536     0.04700
C1333       C  0.15850227  0.95364472  0.36774010    -0.21100
C1334       C  0.18423040  0.92966650  0.34048943    -0.07600
C1335       C  0.20405289  0.89076094  0.35541473     0.13200
C1336       C  0.19564600  0.87619667  0.39730471    -0.21100
C1337       C  0.16762821  0.89948475  0.42415365    -0.07600
C1338       C  0.14890134  0.93865998  0.40839616     0.13200
C1339       C  0.11630717  0.96482469  0.43169689    -0.24500
H1340       H  0.14310991  0.98320613  0.35592783     0.14500
H1341       H  0.20943204  0.84566708  0.40857074     0.14500
C1342       C  0.23175138  0.86346247  0.32666671    -0.24400
H1343       H  0.13330754  0.99422703  0.44096867     0.04700
H1344       H  0.10302186  0.94788316  0.45942004     0.08000
H1345       H  0.08814279  0.97383823  0.41113346     0.08000
H1346       H  0.26064449  0.88206860  0.31651391     0.08000
H1347       H  0.21252159  0.85401670  0.29808921     0.08000
H1348       H  0.24345096  0.83339806  0.34304515     0.04700
C1349       C  0.14321163  0.96955511  0.52629746    -0.24700
C1350       C  0.17592289  0.94366761  0.50926061    -0.07600
C1351       C  0.21326005  0.96441325  0.49407459     0.13200
C1352       C  0.21402983  0.01033229  0.49279373    -0.21100
C1353       C  0.17770398  0.03664340  0.50355039    -0.07600
C1354       C  0.14085110  0.01391588  0.51910993     0.13200
C1355       C  0.09489336  0.03064193  0.51742479    -0.24500
H1356       H  0.11521982  0.95434796  0.53965455     0.14500
H1357       H  0.24436066  0.02488009  0.48608566     0.14500
C1358       C  0.25336000  0.93874506  0.48292019    -0.24400
H1359       H  0.09322136  0.06486947  0.52443394     0.04700
H1360       H  0.07402431  0.01387071  0.54088935     0.08000
H1361       H  0.07984689  0.02316193  0.48626906     0.08000
H1362       H  0.24664821  0.91650456  0.45631269     0.08000
H1363       H  0.26451672  0.91946571  0.51109680     0.08000
H1364       H  0.28035210  0.96018712  0.47311414     0.04700
C1365       C  0.03154188  0.78925546  0.48270632    -0.21100
C1366       C  0.05377312  0.82454438  0.50133821    -0.07600
C1367       C  0.02748553  0.85897559  0.51610827     0.13200
C1368       C  0.98341411  0.85288931  0.52264861    -0.21100
C1369       C  0.96018472  0.82061629  0.50168081    -0.07600
C1370       C  0.98505148  0.78816577  0.48051667     0.13200
C1371       C  0.96385940  0.75103303  0.45797494    -0.24500
H1372       H  0.05010646  0.76315821  0.46882038     0.14500
H1373       H  0.96638745  0.87715112  0.54019899     0.14500
C1374       C  0.04121054  0.90541535  0.51356419    -0.24400
H1375       H  0.97553196  0.71995424  0.47233709     0.04700
H1376       H  0.97260014  0.75187066  0.42370125     0.08000
H1377       H  0.92790205  0.75211586  0.46056929     0.08000
H1378       H  0.07641278  0.90738963  0.51124397     0.08000
H1379       H  0.02914797  0.92408248  0.54106549     0.08000
H1380       H  0.02713145  0.92120761  0.48463243     0.04700
loop_ 
_geom_bond_atom_site_label_1 
_geom_bond_atom_site_label_2 
_geom_bond_distance 
_geom_bond_site_symmetry_2 
_ccdc_geom_bond_type 
C1            C2   1.425       .  A
C1            C6   1.434       .  A
C1         C1318   1.516       .  S
C2            C3   1.451       .  A
C2         C1366   1.525       .  S
C3            C4   1.446       .  A
C3         C1286   1.527       .  S
C4            C5   1.424       .  A
C4         C1302   1.530       .  S
C5            C6   1.432       .  A
C5         C1350   1.509       .  S
C6         C1337   1.502       .  S
C7            C8   1.446       .  A
C7           C12   1.451       .  A
C7         C1209   1.544       .  S
C8            C9   1.447       .  A
C8         C1353   1.538       .  S
C9           C10   1.449       .  A
C9         C1257   1.552       .  S
C10          C11   1.434       .  A
C10        C1238   1.516       .  S
C11          C12   1.437       .  A
C11        C1270   1.525       .  S
C12        C1225   1.519       .  S
C13          C14   1.423       .  A
C13          C18   1.438       .  A
C13        C1126   1.509       .  S
C14          C15   1.425       .  A
C14        C1273   1.526       .  S
C15          C16   1.446       .  A
C15        C1158   1.497       .  S
C16          C17   1.439       .  A
C16        C1174   1.539       .  S
C17          C18   1.428       .  A
C17        C1190   1.510       .  S
C18        C1145   1.496       .  S
C19          C20   1.455       .  A
C19          C24   1.441       .  A
C19        C1065   1.556       .  S
C20          C21   1.450       .  A
C20        C1369   1.521       .  S
C21          C22   1.434       .  A
C21        C1110   1.519       .  S
C22          C23   1.417       .  A
C22        C1094   1.511       .  S
C23          C24   1.421       .  A
C23        C1193   1.507       .  S
C24        C1078   1.497       .  S
C25          C26   1.438       .  A
C25          C30   1.415       .  A
C25        C1001   1.531       .  S
C26          C27   1.463       .  A
C26        C1017   1.483       .  S
C27          C28   1.455       .  A
C27        C1049   1.575       .  S
C28          C29   1.444       .  A
C28         C982   1.521       .  S
C29          C30   1.427       .  A
C29         C966   1.512       .  S
C30        C1030   1.519       .  S
C31          C32   1.426       .  A
C31          C36   1.426       .  A
C31         C902   1.492       .  S
C32          C33   1.447       .  A
C32        C1046   1.530       .  S
C33          C34   1.449       .  A
C33         C937   1.509       .  S
C34          C35   1.436       .  A
C34         C918   1.557       .  S
C35          C36   1.423       .  A
C35         C950   1.513       .  S
C36         C886   1.513       .  S
C37          C38   1.456       .  A
C37          C42   1.430       .  A
C37         C857   1.537       .  S
C38          C39   1.431       .  A
C38         C841   1.493       .  S
C39          C40   1.434       .  A
C39        C1033   1.532       .  S
C40          C41   1.453       .  A
C40         C806   1.557       .  S
C41          C42   1.429       .  A
C41         C822   1.470       .  S
C42         C870   1.555       .  S
C43          C44   1.416       .  A
C43          C48   1.437       .  A
C43         C742   1.513       .  S
C44          C45   1.426       .  A
C44         C953   1.514       .  S
C45          C46   1.443       .  A
C45         C774   1.494       .  S
C46          C47   1.446       .  A
C46         C790   1.548       .  S
C47          C48   1.442       .  A
C47         C873   1.529       .  S
C48         C761   1.498       .  S
C49          C50   1.447       .  A
C49          C54   1.440       .  A
C49         C697   1.527       .  S
C50          C51   1.422       .  A
C50         C681   1.508       .  S
C51          C52   1.422       .  A
C51         C726   1.521       .  S
C52          C53   1.426       .  A
C52         C649   1.476       .  S
C53          C54   1.425       .  A
C53         C662   1.523       .  S
C54         C710   1.503       .  S
C55          C56   1.428       .  A
C55          C60   1.452       .  A
C55         C614   1.540       .  S
C56          C57   1.424       .  A
C56         C713   1.495       .  S
C57          C58   1.433       .  A
C57         C585   1.514       .  S
C58          C59   1.439       .  A
C58         C569   1.516       .  S
C59          C60   1.460       .  A
C59         C630   1.534       .  S
C60         C601   1.537       .  S
C61          C62   1.445       .  A
C61          C66   1.470       .  A
C61         C518   1.556       .  S
C62          C63   1.428       .  A
C62         C633   1.536       .  S
C63          C64   1.424       .  A
C63         C486   1.507       .  S
C64          C65   1.419       .  A
C64         C502   1.500       .  S
C65          C66   1.430       .  A
C65         C550   1.518       .  S
C66         C534   1.506       .  S
C67          C68   1.453       .  A
C67          C72   1.438       .  A
C67         C438   1.507       .  S
C68          C69   1.455       .  A
C68         C422   1.567       .  S
C69          C70   1.464       .  A
C69         C729   1.516       .  S
C70          C71   1.439       .  A
C70         C454   1.538       .  S
C71          C72   1.425       .  A
C71         C470   1.527       .  S
C72         C553   1.518       .  S
O73          C81   1.286       .  A
O73         Co93   1.990   1_565  S
O74          C82   1.236       .  A
O74         Co94   1.979       .  S
O75          C83   1.254       .  A
O75         Co95   2.028       .  S
O76          C84   1.286       .  A
O76         Co96   2.024       .  S
O77          C83   1.242       .  A
O77         Co94   1.974   1_565  S
O78          C84   1.273       .  A
O78         Co93   1.978       .  S
O79          C82   1.243       .  A
O79         Co96   2.000       .  S
O80          C81   1.288       .  A
O80         Co95   2.028       .  S
C81         C342   1.474       .  S
C82         C258   1.465       .  S
C83         C170   1.481       .  S
C84         C110   1.468       .  S
O85          C98   1.279       .  A
O85         Co93   2.051       .  S
O86          C99   1.298       .  A
O86         Co94   2.082   1_565  S
O87         C100   1.272       .  A
O87         Co95   2.016       .  S
O88         C101   1.284       .  A
O88         Co96   1.902       .  S
O89         C101   1.309       .  A
O89         Co94   2.108       .  S
O90         C100   1.264       .  A
O90         Co93   1.972   1_565  S
O91          C98   1.261       .  A
O91         Co96   1.958       .  S
O92          C99   1.287       .  A
O92         Co95   1.905       .  S
Co93         O97   2.019       .  S
Co94         O97   2.082       .  S
Co95         O97   2.006   1_565  S
Co96         O97   1.993       .  S
C98        C1206   1.481       .  S
C99         C777   1.490       .  S
C100       C1305   1.503       .  S
C101        C921   1.484       .  S
O102        C110   1.273       .  A
O102       Co122   1.985       .  S
O103        C111   1.275       .  A
O103       Co123   1.902       .  S
O104        C112   1.279       .  A
O104       Co124   2.020       .  S
O105        C113   1.273       .  A
O105       Co125   2.004       .  S
O106        C112   1.279       .  A
O106       Co123   2.016   1_455  S
O107        C113   1.274       .  A
O107       Co122   1.995   1_655  S
O108        C111   1.291       .  A
O108       Co125   2.112       .  S
O109        C110   1.271       .  A
O109       Co124   2.001       .  S
C111        C314   1.471       .  S
C112        C256   1.501       .  S
C113        C371   1.471       .  S
O114        C127   1.275       .  A
O114       Co122   2.008   1_655  S
O115        C128   1.275       .  A
O115       Co123   2.002   1_455  S
O116        C129   1.270       .  A
O116       Co124   1.991       .  S
O117        C130   1.276       .  A
O117       Co125   1.926       .  S
O118        C130   1.302       .  A
O118       Co123   2.131       .  S
O119        C129   1.276       .  A
O119       Co122   1.998       .  S
O120        C127   1.276       .  A
O120       Co125   2.000       .  S
O121        C128   1.266       .  A
O121       Co124   1.979       .  S
Co122       O126   2.005       .  S
Co123       O126   1.973   1_655  S
Co124       O126   2.034       .  S
Co125       O126   2.003   1_655  S
C127       C1129   1.492       .  S
C128        C678   1.493       .  S
C129       C1222   1.498       .  S
C130        C457   1.503       .  S
O131        C139   1.284       .  A
O131       Co151   1.993       .  S
O132        C140   1.244       .  A
O132       Co152   1.991   1_655  S
O133        C141   1.254       .  A
O133       Co153   2.043       .  S
O134        C142   1.291       .  A
O134       Co154   2.035       .  S
O135        C141   1.231       .  A
O135       Co152   1.974       .  S
O136        C142   1.275       .  A
O136       Co151   1.975   1_655  S
O137        C140   1.250       .  A
O137       Co154   2.003       .  S
O138        C139   1.282       .  A
O138       Co153   2.004       .  S
C139        C226   1.465       .  S
C140        C402   1.480       .  S
C141        C171   1.483       .  S
C142        C286   1.471       .  S
O143        C156   1.280       .  A
O143       Co151   2.039   1_655  S
O144        C157   1.317       .  A
O144       Co152   2.140       .  S
O145        C158   1.273       .  A
O145       Co153   2.009       .  S
O146        C159   1.289       .  A
O146       Co154   1.943       .  S
O147        C159   1.294       .  A
O147       Co152   2.073   1_655  S
O148        C158   1.262       .  A
O148       Co151   1.992       .  S
O149        C156   1.270       .  A
O149       Co154   1.984       .  S
O150        C157   1.285       .  A
O150       Co153   1.895       .  S
Co151       O155   2.022       .  S
Co152       O155   2.087       .  S
Co153       O155   2.011       .  S
Co154       O155   2.011   1_655  S
C156       C1113   1.499       .  S
C157        C566   1.491       .  S
C158       C1321   1.507       .  S
C159        C489   1.514       .  S
O160        C168   1.281       .  A
O160       Co180   2.056       .  S
O161        C169   1.272       .  A
O161       Co181   2.017       .  S
O162        C170   1.266       .  A
O162       Co182   1.984   1_556  S
O163        C171   1.277       .  A
O163       Co183   2.001   1_554  S
O164        C170   1.270       .  A
O164       Co181   2.018       .  S
O165        C171   1.267       .  A
O165       Co180   1.999       .  S
O166        C169   1.269       .  A
O166       Co183   1.999       .  S
O167        C168   1.265       .  A
O167       Co182   2.006       .  S
C168        C229   1.513       .  S
C169        C345   1.493       .  S
O172        C185   1.269       .  A
O172       Co180   1.999       .  S
O173        C186   1.254       .  A
O173       Co181   1.954       .  S
O174        C187   1.277       .  A
O174       Co182   2.049       .  S
O175        C188   1.280       .  A
O175       Co183   2.052       .  S
O176        C188   1.254       .  A
O176       Co181   1.950       .  S
O177        C187   1.257       .  A
O177       Co180   1.962       .  S
O178        C185   1.263       .  A
O178       Co183   2.011   1_554  S
O179        C186   1.274       .  A
O179       Co182   2.064   1_556  S
Co180       O184   2.109       .  S
Co181       O184   2.110   1_556  S
Co182       O184   2.144       .  S
Co183       O184   2.135   1_556  S
C185        C582   1.508       .  S
C186        C793   1.490       .  S
C187        C854   1.485       .  S
C188        C665   1.485       .  S
O189        C197   1.267       .  A
O189       Co209   2.009       .  S
O190        C198   1.278       .  A
O190       Co210   2.051       .  S
O191        C199   1.277       .  A
O191       Co211   1.999   1_655  S
O192        C200   1.256       .  A
O192       Co212   1.975       .  S
O193        C199   1.267       .  A
O193       Co210   1.996       .  S
O194        C200   1.280       .  A
O194       Co209   2.055       .  S
O195        C198   1.256       .  A
O195       Co212   1.976   1_655  S
O196        C197   1.273       .  A
O196       Co211   1.991       .  S
C197        C228   1.483       .  S
C198        C316   1.491       .  S
C199        C284   1.478       .  S
C200        C257   1.492       .  S
O201        C214   1.248       .  A
O201       Co209   1.945       .  S
O202        C215   1.264       .  A
O202       Co210   1.980       .  S
O203        C216   1.275       .  A
O203       Co211   2.027       .  S
O204        C217   1.279       .  A
O204       Co212   2.065   1_655  S
O205        C217   1.257       .  A
O205       Co210   1.971       .  S
O206        C216   1.258       .  A
O206       Co209   1.967       .  S
O207        C214   1.275       .  A
O207       Co212   2.060       .  S
O208        C215   1.267       .  A
O208       Co211   1.998   1_655  S
Co209       O213   2.099       .  S
Co210       O213   2.105   1_655  S
Co211       O213   2.113       .  S
Co212       O213   2.120       .  S
C214        C598   1.479       .  S
C215       C1161   1.488       .  S
C216       C1241   1.493       .  S
C217        C521   1.500       .  S
O218        C226   1.278       .  A
O218       Co238   2.016       .  S
O219        C227   1.291       .  A
O219       Co239   2.113       .  S
O220        C228   1.263       .  A
O220       Co240   1.993   1_545  S
O221        C229   1.286       .  A
O221       Co241   2.035   1_565  S
O222        C228   1.277       .  A
O222       Co239   2.021       .  S
O223        C229   1.272       .  A
O223       Co238   2.012       .  S
O224        C227   1.281       .  A
O224       Co241   1.917       .  S
O225        C226   1.266       .  A
O225       Co240   1.972       .  S
C227        C255   1.486       .  S
O230        C243   1.261       .  A
O230       Co238   1.963       .  S
O231        C244   1.269       .  A
O231       Co239   1.984       .  S
O232        C245   1.273       .  A
O232       Co240   2.012       .  S
O233        C246   1.297       .  A
O233       Co241   2.128       .  S
O234        C246   1.275       .  A
O234       Co239   1.939       .  S
O235        C245   1.257       .  A
O235       Co238   1.957       .  S
O236        C243   1.277       .  A
O236       Co241   2.017   1_565  S
O237        C244   1.282       .  A
O237       Co240   2.052   1_545  S
Co238       O242   2.033       .  S
Co239       O242   2.008   1_545  S
Co240       O242   2.023       .  S
Co241       O242   1.977   1_545  S
C243        C838   1.487       .  S
C244       C1254   1.495       .  S
C245       C1334   1.470       .  S
C246        C998   1.519       .  S
O247        C255   1.262       .  A
O247       Co267   1.959   1_554  S
O248        C256   1.271       .  A
O248       Co268   2.015   1_556  S
O249        C257   1.269       .  A
O249       Co269   2.011       .  S
O250        C258   1.269       .  A
O250       Co270   2.004       .  S
O251        C257   1.278       .  A
O251       Co268   2.008       .  S
O252        C258   1.264       .  A
O252       Co267   1.971       .  S
O253        C256   1.273       .  A
O253       Co270   2.021       .  S
O254        C255   1.278       .  A
O254       Co269   2.051       .  S
O259        C272   1.268       .  A
O259       Co267   2.012       .  S
O260        C273   1.272       .  A
O260       Co268   2.015       .  S
O261        C274   1.253       .  A
O261       Co269   1.944       .  S
O262        C275   1.247       .  A
O262       Co270   1.926       .  S
O263        C275   1.277       .  A
O263       Co268   2.060   1_556  S
O264        C274   1.267       .  A
O264       Co267   2.018   1_554  S
O265        C272   1.255       .  A
O265       Co270   1.971       .  S
O266        C273   1.260       .  A
O266       Co269   1.987       .  S
Co267       O271   2.125       .  S
Co268       O271   2.131   1_554  S
Co269       O271   2.112   1_554  S
Co270       O271   2.095       .  S
C272        C934   1.492       .  S
C273        C617   1.503       .  S
C274       C1014   1.470       .  S
C275        C694   1.463       .  S
O276        C284   1.282       .  A
O276       Co296   2.035       .  S
O277        C285   1.296       .  A
O277       Co297   2.128       .  S
O278        C286   1.276       .  A
O278       Co298   2.002   1_565  S
O279        C287   1.284       .  A
O279       Co299   2.027   1_545  S
O280        C286   1.269       .  A
O280       Co297   1.995       .  S
O281        C287   1.267       .  A
O281       Co296   1.984       .  S
O282        C285   1.274       .  A
O282       Co299   1.898       .  S
O283        C284   1.261       .  A
O283       Co298   1.975       .  S
C285        C400   1.476       .  S
C287        C313   1.489       .  S
O288        C301   1.267       .  A
O288       Co296   1.988       .  S
O289        C302   1.281       .  A
O289       Co297   2.027       .  S
O290        C303   1.285       .  A
O290       Co298   2.067       .  S
O291        C304   1.303       .  A
O291       Co299   2.150       .  S
O292        C304   1.274       .  A
O292       Co297   1.898       .  S
O293        C303   1.255       .  A
O293       Co296   1.940       .  S
O294        C301   1.268       .  A
O294       Co299   1.995   1_545  S
O295        C302   1.263       .  A
O295       Co298   1.985   1_565  S
Co296       O300   2.022       .  S
Co297       O300   1.995   1_565  S
Co298       O300   2.023       .  S
Co299       O300   1.972   1_565  S
C301        C969   1.493       .  S
C302       C1097   1.510       .  S
C303       C1177   1.474       .  S
C304        C809   1.491       .  S
O305        C313   1.278       .  A
O305       Co325   2.036       .  S
O306        C314   1.270       .  A
O306       Co326   2.010       .  S
O307        C315   1.272       .  A
O307       Co327   2.007   1_556  S
O308        C316   1.271       .  A
O308       Co328   1.993       .  S
O309        C315   1.276       .  A
O309       Co326   2.032       .  S
O310        C316   1.270       .  A
O310       Co325   2.025       .  S
O311        C314   1.267       .  A
O311       Co328   1.966   1_556  S
O312        C313   1.258       .  A
O312       Co327   1.980       .  S
C315        C373   1.503       .  S
O317        C330   1.249       .  A
O317       Co325   1.959       .  S
O318        C331   1.264       .  A
O318       Co326   1.973       .  S
O319        C332   1.284       .  A
O319       Co327   2.091       .  S
O320        C333   1.273       .  A
O320       Co328   2.024   1_556  S
O321        C333   1.267       .  A
O321       Co326   1.995       .  S
O322        C332   1.244       .  A
O322       Co325   1.927       .  S
O323        C330   1.268       .  A
O323       Co328   2.013       .  S
O324        C331   1.263       .  A
O324       Co327   2.008   1_556  S
Co325       O329   2.105       .  S
Co326       O329   2.115   1_556  S
Co327       O329   2.145       .  S
Co328       O329   2.127       .  S
C330        C537   1.482       .  S
C331        C905   1.483       .  S
C332        C985   1.488       .  S
C333        C473   1.508       .  S
O334        C342   1.274       .  A
O334       Co354   2.033       .  S
O335        C343   1.304       .  A
O335       Co355   2.144       .  S
O336        C344   1.262       .  A
O336       Co356   1.992   1_655  S
O337        C345   1.278       .  A
O337       Co357   2.011       .  S
O338        C344   1.272       .  A
O338       Co355   1.996       .  S
O339        C345   1.279       .  A
O339       Co354   2.019       .  S
O340        C343   1.263       .  A
O340       Co357   1.892   1_655  S
O341        C342   1.258       .  A
O341       Co356   1.964       .  S
C343        C401   1.479       .  S
C344        C374   1.469       .  S
O346        C359   1.248       .  A
O346       Co354   1.951       .  S
O347        C360   1.276       .  A
O347       Co355   2.012       .  S
O348        C361   1.286       .  A
O348       Co356   2.077       .  S
O349        C362   1.306       .  A
O349       Co357   2.153   1_655  S
O350        C362   1.273       .  A
O350       Co355   1.910       .  S
O351        C361   1.245       .  A
O351       Co354   1.938       .  S
O352        C359   1.257       .  A
O352       Co357   1.978       .  S
O353        C360   1.272       .  A
O353       Co356   2.027   1_655  S
Co354       O358   2.032       .  S
Co355       O358   2.012   1_655  S
Co356       O358   2.036       .  S
Co357       O358   1.994       .  S
C359        C646   1.456       .  S
C360       C1062   1.505       .  S
C361       C1289   1.483       .  S
C362        C425   1.513       .  S
O363        C371   1.277       .  A
O363       Co383   1.983       .  S
O364        C372   1.269       .  A
O364       Co384   1.978       .  S
O365        C373   1.253       .  A
O365       Co385   2.059       .  S
O366        C374   1.271       .  A
O366       Co386   1.992       .  S
O367        C373   1.247       .  A
O367       Co384   2.001   1_545  S
O368        C374   1.278       .  A
O368       Co383   1.991   1_565  S
O369        C372   1.271       .  A
O369       Co386   2.014       .  S
O370        C371   1.285       .  A
O370       Co385   2.026       .  S
C372        C403   1.466       .  S
O375        C388   1.265       .  A
O375       Co383   2.018   1_565  S
O376        C389   1.317       .  A
O376       Co384   2.133   1_545  S
O377        C390   1.272       .  A
O377       Co385   1.985       .  S
O378        C391   1.265       .  A
O378       Co386   2.001       .  S
O379        C391   1.258       .  A
O379       Co384   1.984       .  S
O380        C390   1.269       .  A
O380       Co383   2.004       .  S
O381        C388   1.267       .  A
O381       Co386   1.976       .  S
O382        C389   1.285       .  A
O382       Co385   1.902       .  S
Co383       O387   2.056   1_545  S
Co384       O387   2.064       .  S
Co385       O387   2.019   1_545  S
Co386       O387   2.092       .  S
C388       C1081   1.499       .  S
C389        C889   1.501       .  S
C390       C1142   1.487       .  S
C391        C745   1.503       .  S
O392        C400   1.271       .  A
O392       Co412   1.977   1_554  S
O393        C401   1.275       .  A
O393       Co413   1.905       .  S
O394        C402   1.277       .  A
O394       Co414   2.007       .  S
O395        C403   1.276       .  A
O395       Co415   2.022       .  S
O396        C402   1.276       .  A
O396       Co413   1.990   1_554  S
O397        C403   1.262       .  A
O397       Co412   1.969       .  S
O398        C401   1.294       .  A
O398       Co415   2.110       .  S
O399        C400   1.275       .  A
O399       Co414   2.020       .  S
O404        C417   1.277       .  A
O404       Co412   2.020       .  S
O405        C418   1.271       .  A
O405       Co413   2.000   1_554  S
O406        C419   1.261       .  A
O406       Co414   1.961       .  S
O407        C420   1.272       .  A
O407       Co415   1.916       .  S
O408        C420   1.290       .  A
O408       Co413   2.115       .  S
O409        C419   1.268       .  A
O409       Co412   1.995   1_554  S
O410        C417   1.266       .  A
O410       Co415   1.977       .  S
O411        C418   1.262       .  A
O411       Co414   1.981       .  S
Co412       O416   2.033   1_556  S
Co413       O416   1.994   1_556  S
Co414       O416   2.016       .  S
Co415       O416   2.015   1_556  S
C417        C758   1.481       .  S
C418        C505   1.488       .  S
C419        C825   1.479       .  S
C420        C441   1.497       .  S
C421        C422   1.415       .  A
C421        C426   1.425       .  A
C421        H428   1.080       .  S
C422        C423   1.422       .  A
C423        C424   1.404       .  A
C423        C430   1.501       .  S
C424        C425   1.402       .  A
C424        H429   1.083       .  S
C425        C426   1.425       .  A
C426        C427   1.503       .  S
C427        H431   1.111       .  S
C427        H432   1.110       .  S
C427        H433   1.104       .  S
C430        H434   1.106       .  S
C430        H435   1.109       .  S
C430        H436   1.112       .  S
C437        C438   1.396       .  A
C437        C442   1.398       .  A
C437        H444   1.076       .  S
C438        C439   1.418       .  A
C439        C440   1.420       .  A
C439        C446   1.505       .  S
C440        C441   1.410       .  A
C440        H445   1.083       .  S
C441        C442   1.417       .  A
C442        C443   1.501       .  S
C443        H447   1.106       .  S
C443        H448   1.101       .  S
C443        H449   1.107       .  S
C446        H450   1.109       .  S
C446        H451   1.109       .  S
C446        H452   1.111       .  S
C453        C454   1.425       .  A
C453        C458   1.426       .  A
C453        H460   1.083       .  S
C454        C455   1.422       .  A
C455        C456   1.398       .  A
C455        C462   1.482       .  S
C456        C457   1.391       .  A
C456        H461   1.083       .  S
C457        C458   1.413       .  A
C458        C459   1.503       .  S
C459        H463   1.111       .  S
C459        H464   1.111       .  S
C459        H465   1.110       .  S
C462        H466   1.091       .  S
C462        H467   1.084       .  S
C462        H468   1.100   1_655  S
C469        C470   1.413       .  A
C469        C474   1.423       .  A
C469        H476   1.083       .  S
C470        C471   1.422       .  A
C471        C472   1.395       .  A
C471        C478   1.496       .  S
C472        C473   1.401       .  A
C472        H477   1.084       .  S
C473        C474   1.420       .  A
C474        C475   1.504       .  S
C475        H479   1.111       .  S
C475        H480   1.110       .  S
C475        H481   1.110       .  S
C478        H482   1.087       .  S
C478        H483   1.102       .  S
C478        H484   1.102       .  S
C485        C486   1.390       .  A
C485        C490   1.403       .  A
C485        H492   1.081       .  S
C486        C487   1.417       .  A
C487        C488   1.419       .  A
C487        C494   1.504       .  S
C488        C489   1.410       .  A
C488        H493   1.083       .  S
C489        C490   1.432       .  A
C490        C491   1.510       .  S
C491        H495   1.107   1_655  S
C491        H496   1.093   1_655  S
C491        H497   1.110       .  S
C494        H498   1.110       .  S
C494        H499   1.109       .  S
C494        H500   1.110       .  S
C501        C502   1.402       .  A
C501        C506   1.409       .  A
C501        H508   1.084       .  S
C502        C503   1.421       .  A
C503        C504   1.390       .  A
C503        C510   1.505       .  S
C504        C505   1.398       .  A
C504        H509   1.081       .  S
C505        C506   1.421       .  A
C506        C507   1.506       .  S
C507        H511   1.111       .  S
C507        H512   1.110       .  S
C507        H513   1.110       .  S
C510        H514   1.104       .  S
C510        H515   1.103       .  S
C510        H516   1.100       .  S
C517        C518   1.402       .  A
C517        C522   1.405       .  A
C517        H524   1.068       .  S
C518        C519   1.424       .  A
C519        C520   1.418       .  A
C519        C526   1.503       .  S
C520        C521   1.407       .  A
C520        H525   1.077       .  S
C521        C522   1.410       .  A
C522        C523   1.497       .  S
C523        H527   1.109       .  S
C523        H528   1.110       .  S
C523        H529   1.104       .  S
C526        H530   1.109       .  S
C526        H531   1.106       .  S
C526        H532   1.110       .  S
C533        C534   1.409       .  A
C533        C538   1.414       .  A
C533        H540   1.083       .  S
C534        C535   1.412       .  A
C535        C536   1.386       .  A
C535        C542   1.484       .  S
C536        C537   1.391       .  A
C536        H541   1.084       .  S
C537        C538   1.420       .  A
C538        C539   1.505       .  S
C539        H543   1.111       .  S
C539        H544   1.110       .  S
C539        H545   1.111       .  S
C542        H546   1.111       .  S
C542        H547   1.094       .  S
C542        H548   1.100       .  S
C549        C550   1.380       .  A
C549        C554   1.376   1_554  A
C549        H556   1.069       .  S
C550        C551   1.423       .  A
C551        C552   1.433   1_554  A
C551        C558   1.500       .  S
C552        C553   1.418       .  A
C552        H557   1.083       .  S
C553        C554   1.408       .  A
C554        C555   1.484       .  S
C555        H559   1.104       .  S
C555        H560   1.081       .  S
C555        H561   1.110       .  S
C558        H562   1.110       .  S
C558        H563   1.109       .  S
C558        H564   1.111       .  S
C565        C566   1.401       .  A
C565        C570   1.417       .  A
C565        H572   1.083       .  S
C566        C567   1.400       .  A
C567        C568   1.400       .  A
C567        C574   1.506       .  S
C568        C569   1.405       .  A
C568        H573   1.075       .  S
C569        C570   1.427       .  A
C570        C571   1.501       .  S
C571        H575   1.104       .  S
C571        H576   1.109       .  S
C571        H577   1.110       .  S
C574        H578   1.107   1_455  S
C574        H579   1.100       .  S
C574        H580   1.110       .  S
C581        C582   1.407       .  A
C581        C586   1.411       .  A
C581        H588   1.084       .  S
C582        C583   1.428       .  A
C583        C584   1.407       .  A
C583        C590   1.513       .  S
C584        C585   1.403       .  A
C584        H589   1.085       .  S
C585        C586   1.422       .  A
C586        C587   1.507       .  S
C587        H591   1.107       .  S
C587        H592   1.110       .  S
C587        H593   1.109       .  S
C590        H594   1.106       .  S
C590        H595   1.110       .  S
C590        H596   1.104       .  S
C597        C598   1.399       .  A
C597        C602   1.406       .  A
C597        H604   1.074       .  S
C598        C599   1.411       .  A
C599        C600   1.410       .  A
C599        C606   1.503       .  S
C600        C601   1.410       .  A
C600        H605   1.079       .  S
C601        C602   1.414       .  A
C602        C603   1.495       .  S
C603        H607   1.111       .  S
C603        H608   1.105       .  S
C603        H609   1.106       .  S
C606        H610   1.107       .  S
C606        H611   1.110       .  S
C606        H612   1.110       .  S
C613        C614   1.416       .  A
C613        C618   1.424       .  A
C613        H620   1.083       .  S
C614        C615   1.429       .  A
C615        C616   1.391       .  A
C615        C622   1.487       .  S
C616        C617   1.390       .  A
C616        H621   1.084       .  S
C617        C618   1.421       .  A
C618        C619   1.504       .  S
C619        H623   1.110       .  S
C619        H624   1.110       .  S
C619        H625   1.111       .  S
C622        H626   1.083       .  S
C622        H627   1.097       .  S
C622        H628   1.112       .  S
C629        C630   1.380       .  A
C629        C634   1.385   1_455  A
C629        H636   1.052       .  S
C630        C631   1.429       .  A
C631        C632   1.434   1_455  A
C631        C638   1.505       .  S
C632        C633   1.426       .  A
C632        H637   1.083       .  S
C633        C634   1.417       .  A
C634        C635   1.497       .  S
C635        H639   1.109       .  S
C635        H640   1.104       .  S
C635        H641   1.078       .  S
C638        H642   1.109       .  S
C638        H643   1.110       .  S
C638        H644   1.104       .  S
C645        C646   1.409       .  A
C645        C650   1.402       .  A
C645        H652   1.084       .  S
C646        C647   1.404       .  A
C647        C648   1.376       .  A
C647        C654   1.508       .  S
C648        C649   1.390       .  A
C648        H653   1.057       .  S
C649        C650   1.406       .  A
C650        C651   1.504       .  S
C651        H655   1.111       .  S
C651        H656   1.110       .  S
C651        H657   1.109       .  S
C654        H658   1.106   1_455  S
C654        H659   1.110       .  S
C654        H660   1.110       .  S
C661        C662   1.412       .  A
C661        C666   1.421       .  A
C661        H668   1.084       .  S
C662        C663   1.424       .  A
C663        C664   1.387       .  A
C663        C670   1.483       .  S
C664        C665   1.379       .  A
C664        H669   1.074       .  S
C665        C666   1.418       .  A
C666        C667   1.504       .  S
C667        H671   1.111       .  S
C667        H672   1.110       .  S
C667        H673   1.111       .  S
C670        H674   1.083       .  S
C670        H675   1.111       .  S
C670        H676   1.103   1_556  S
C677        C678   1.402       .  A
C677        C682   1.396       .  A
C677        H684   1.083       .  S
C678        C679   1.421       .  A
C679        C680   1.412       .  A
C679        C686   1.506       .  S
C680        C681   1.408       .  A
C680        H685   1.083       .  S
C681        C682   1.422       .  A
C682        C683   1.499       .  S
C683        H687   1.111       .  S
C683        H688   1.099       .  S
C683        H689   1.101       .  S
C686        H690   1.110       .  S
C686        H691   1.110       .  S
C686        H692   1.111       .  S
C693        C694   1.397       .  A
C693        C698   1.397       .  A
C693        H700   1.078       .  S
C694        C695   1.413       .  A
C695        C696   1.407       .  A
C695        C702   1.505       .  S
C696        C697   1.407       .  A
C696        H701   1.081       .  S
C697        C698   1.410       .  A
C698        C699   1.497       .  S
C699        H703   1.111       .  S
C699        H704   1.108       .  S
C699        H705   1.106       .  S
C702        H706   1.107       .  S
C702        H707   1.110       .  S
C702        H708   1.111       .  S
C709        C710   1.395       .  A
C709        C714   1.384   1_556  A
C709        H716   1.058       .  S
C710        C711   1.419       .  A
C711        C712   1.415   1_556  A
C711        C718   1.504       .  S
C712        C713   1.409       .  A
C712        H717   1.073       .  S
C713        C714   1.404       .  A
C714        C715   1.510       .  S
C715        H719   1.106       .  S
C715        H720   1.104       .  S
C715        H721   1.098       .  S
C718        H722   1.109       .  S
C718        H723   1.110       .  S
C718        H724   1.110       .  S
C725        C726   1.420       .  A
C725        C730   1.436   1_455  A
C725        H732   1.082       .  S
C726        C727   1.409       .  A
C727        C728   1.379   1_455  A
C727        C734   1.493       .  S
C728        C729   1.392       .  A
C728        H733   1.071       .  S
C729        C730   1.430       .  A
C730        C731   1.504       .  S
C731        H735   1.109       .  S
C731        H736   1.110       .  S
C731        H737   1.110       .  S
C734        H738   1.080       .  S
C734        H739   1.103       .  S
C734        H740   1.108       .  S
C741        C742   1.391       .  A
C741        C746   1.393       .  A
C741        H748   1.069       .  S
C742        C743   1.416       .  A
C743        C744   1.424       .  A
C743        C750   1.505       .  S
C744        C745   1.415       .  A
C744        H749   1.083       .  S
C745        C746   1.424       .  A
C746        C747   1.521       .  S
C747        H751   1.104       .  S
C747        H752   1.102       .  S
C747        H753   1.109       .  S
C750        H754   1.106       .  S
C750        H755   1.110       .  S
C750        H756   1.110       .  S
C757        C758   1.386       .  A
C757        C762   1.381       .  A
C757        H764   1.076       .  S
C758        C759   1.415       .  A
C759        C760   1.421       .  A
C759        C766   1.503       .  S
C760        C761   1.412       .  A
C760        H765   1.083       .  S
C761        C762   1.405       .  A
C762        C763   1.485       .  S
C763        H767   1.105       .  S
C763        H768   1.098       .  S
C763        H769   1.102       .  S
C766        H770   1.110       .  S
C766        H771   1.110       .  S
C766        H772   1.111       .  S
C773        C774   1.401       .  A
C773        C778   1.399       .  A
C773        H780   1.081       .  S
C774        C775   1.414       .  A
C775        C776   1.407       .  A
C775        C782   1.505       .  S
C776        C777   1.405       .  A
C776        H781   1.084       .  S
C777        C778   1.424       .  A
C778        C779   1.510       .  S
C779        H783   1.111       .  S
C779        H784   1.110       .  S
C779        H785   1.109       .  S
C782        H786   1.108       .  S
C782        H787   1.110       .  S
C782        H788   1.110       .  S
C789        C790   1.415       .  A
C789        C794   1.422       .  A
C789        H796   1.080       .  S
C790        C791   1.404       .  A
C791        C792   1.398       .  A
C791        C798   1.502       .  S
C792        C793   1.392       .  A
C792        H797   1.067       .  S
C793        C794   1.420       .  A
C794        C795   1.502       .  S
C795        H799   1.111       .  S
C795        H800   1.108       .  S
C795        H801   1.110       .  S
C798        H802   1.106       .  S
C798        H803   1.109       .  S
C798        H804   1.111       .  S
C805        C806   1.412       .  A
C805        C810   1.414       .  A
C805        H812   1.076       .  S
C806        C807   1.424       .  A
C807        C808   1.411       .  A
C807        C814   1.498       .  S
C808        C809   1.403       .  A
C808        H813   1.085       .  S
C809        C810   1.411       .  A
C810        C811   1.504       .  S
C811        H815   1.110       .  S
C811        H816   1.110       .  S
C811        H817   1.110       .  S
C814        H818   1.111       .  S
C814        H819   1.107       .  S
C814        H820   1.110       .  S
C821        C822   1.400       .  A
C821        C826   1.397       .  A
C821        H828   1.084       .  S
C822        C823   1.403       .  A
C823        C824   1.392       .  A
C823        C830   1.515       .  S
C824        C825   1.412       .  A
C824        H829   1.084       .  S
C825        C826   1.418       .  A
C826        C827   1.509       .  S
C827        H831   1.111       .  S
C827        H832   1.110       .  S
C827        H833   1.110       .  S
C830        H834   1.098       .  S
C830        H835   1.096       .  S
C830        H836   1.109       .  S
C837        C838   1.402       .  A
C837        C842   1.386       .  A
C837        H844   1.081       .  S
C838        C839   1.425       .  A
C839        C840   1.407       .  A
C839        C846   1.508       .  S
C840        C841   1.402       .  A
C840        H845   1.084       .  S
C841        C842   1.403       .  A
C842        C843   1.495       .  S
C843        H847   1.090   1_565  S
C843        H848   1.105       .  S
C843        H849   1.101       .  S
C846        H850   1.110       .  S
C846        H851   1.110       .  S
C846        H852   1.111       .  S
C853        C854   1.399       .  A
C853        C858   1.402       .  A
C853        H860   1.084       .  S
C854        C855   1.414       .  A
C855        C856   1.418       .  A
C855        C862   1.507       .  S
C856        C857   1.418       .  A
C856        H861   1.077       .  S
C857        C858   1.409       .  A
C858        C859   1.506       .  S
C859        H863   1.109       .  S
C859        H864   1.111       .  S
C859        H865   1.109       .  S
C862        H866   1.107       .  S
C862        H867   1.110       .  S
C862        H868   1.109       .  S
C869        C870   1.422       .  A
C869        C874   1.433   1_554  A
C869        H876   1.080       .  S
C870        C871   1.416       .  A
C871        C872   1.393   1_554  A
C871        C878   1.471       .  S
C872        C873   1.396       .  A
C872        H877   1.079       .  S
C873        C874   1.427       .  A
C874        C875   1.502       .  S
C875        H879   1.110       .  S
C875        H880   1.111       .  S
C875        H881   1.109       .  S
C878        H882   1.100       .  S
C878        H883   1.104       .  S
C878        H884   1.112   1_554  S
C885        C886   1.415       .  A
C885        C890   1.424       .  A
C885        H892   1.083       .  S
C886        C887   1.407       .  A
C887        C888   1.384       .  A
C887        C894   1.483       .  S
C888        C889   1.392       .  A
C888        H893   1.069       .  S
C889        C890   1.419       .  A
C890        C891   1.503       .  S
C891        H895   1.111       .  S
C891        H896   1.110       .  S
C891        H897   1.110       .  S
C894        H898   1.095   1_545  S
C894        H899   1.087       .  S
C894        H900   1.109       .  S
C901        C902   1.406       .  A
C901        C906   1.404       .  A
C901        H908   1.084       .  S
C902        C903   1.420       .  A
C903        C904   1.402       .  A
C903        C910   1.513       .  S
C904        C905   1.407       .  A
C904        H909   1.084       .  S
C905        C906   1.414       .  A
C906        C907   1.506       .  S
C907        H911   1.111       .  S
C907        H912   1.110       .  S
C907        H913   1.110       .  S
C910        H914   1.104       .  S
C910        H915   1.105       .  S
C910        H916   1.099   1_556  S
C917        C918   1.426       .  A
C917        C922   1.421       .  A
C917        H924   1.083       .  S
C918        C919   1.433       .  A
C919        C920   1.398       .  A
C919        C926   1.491       .  S
C920        C921   1.390       .  A
C920        H925   1.086       .  S
C921        C922   1.407       .  A
C922        C923   1.504       .  S
C923        H927   1.111       .  S
C923        H928   1.110       .  S
C923        H929   1.110       .  S
C926        H930   1.099   1_545  S
C926        H931   1.105       .  S
C926        H932   1.112   1_545  S
C933        C934   1.398       .  A
C933        C938   1.387       .  A
C933        H940   1.084       .  S
C934        C935   1.419       .  A
C935        C936   1.418       .  A
C935        C942   1.504       .  S
C936        C937   1.411       .  A
C936        H941   1.083       .  S
C937        C938   1.418       .  A
C938        C939   1.503       .  S
C939        H943   1.099       .  S
C939        H944   1.103       .  S
C939        H945   1.109       .  S
C942        H946   1.110       .  S
C942        H947   1.110       .  S
C942        H948   1.111       .  S
C949        C950   1.414       .  A
C949        C954   1.421   1_545  A
C949        H956   1.084       .  S
C950        C951   1.431       .  A
C951        C952   1.397   1_545  A
C951        C958   1.504       .  S
C952        C953   1.396       .  A
C952        H957   1.082       .  S
C953        C954   1.419       .  A
C954        C955   1.499       .  S
C955        H959   1.110       .  S
C955        H960   1.104       .  S
C955        H961   1.110       .  S
C958        H962   1.108       .  S
C958        H963   1.100       .  S
C958        H964   1.110       .  S
C965        C966   1.403       .  A
C965        C970   1.397       .  A
C965        H972   1.080       .  S
C966        C967   1.416       .  A
C967        C968   1.409       .  A
C967        C974   1.507       .  S
C968        C969   1.411       .  A
C968        H973   1.084       .  S
C969        C970   1.420       .  A
C970        C971   1.510       .  S
C971        H975   1.111       .  S
C971        H976   1.110       .  S
C971        H977   1.106       .  S
C974        H978   1.110       .  S
C974        H979   1.106       .  S
C974        H980   1.110       .  S
C981        C982   1.395       .  A
C981        C986   1.390       .  A
C981        H988   1.065       .  S
C982        C983   1.433       .  A
C983        C984   1.423       .  A
C983        C990   1.503       .  S
C984        C985   1.408       .  A
C984        H989   1.084       .  S
C985        C986   1.393       .  A
C986        C987   1.498       .  S
C987        H991   1.096   1_554  S
C987        H992   1.103   1_554  S
C987        H993   1.111       .  S
C990        H994   1.109       .  S
C990        H995   1.110       .  S
C990        H996   1.108       .  S
C997        C998   1.414       .  A
C997       C1002   1.431       .  A
C997       H1004   1.083       .  S
C998        C999   1.415       .  A
C999       C1000   1.400       .  A
C999       C1006   1.499       .  S
C1000      C1001   1.389       .  A
C1000      H1005   1.069       .  S
C1001      C1002   1.424       .  A
C1002      C1003   1.503       .  S
C1003      H1007   1.110       .  S
C1003      H1008   1.106       .  S
C1003      H1009   1.109       .  S
C1006      H1010   1.108       .  S
C1006      H1011   1.077       .  S
C1006      H1012   1.101       .  S
C1013      C1014   1.412       .  A
C1013      C1018   1.405       .  A
C1013      H1020   1.084       .  S
C1014      C1015   1.409       .  A
C1015      C1016   1.384       .  A
C1015      C1022   1.505       .  S
C1016      C1017   1.401       .  A
C1016      H1021   1.085       .  S
C1017      C1018   1.410       .  A
C1018      C1019   1.504       .  S
C1019      H1023   1.111       .  S
C1019      H1024   1.109       .  S
C1019      H1025   1.110       .  S
C1022      H1026   1.084   1_554  S
C1022      H1027   1.106       .  S
C1022      H1028   1.110       .  S
C1029      C1030   1.403       .  A
C1029      C1034   1.396   1_545  A
C1029      H1036   1.082       .  S
C1030      C1031   1.420       .  A
C1031      C1032   1.420   1_545  A
C1031      C1038   1.501       .  S
C1032      C1033   1.421       .  A
C1032      H1037   1.080       .  S
C1033      C1034   1.407       .  A
C1034      C1035   1.500       .  S
C1035      H1039   1.106   1_565  S
C1035      H1040   1.093       .  S
C1035      H1041   1.107   1_565  S
C1038      H1042   1.110       .  S
C1038      H1043   1.106       .  S
C1038      H1044   1.110       .  S
C1045      C1046   1.400       .  A
C1045      C1050   1.388   1_556  A
C1045      H1052   1.076       .  S
C1046      C1047   1.447       .  A
C1047      C1048   1.456   1_556  A
C1047      C1054   1.503       .  S
C1048      C1049   1.432       .  A
C1048      H1053   1.082       .  S
C1049      C1050   1.396       .  A
C1050      C1051   1.519       .  S
C1051      H1055   1.110   1_554  S
C1051      H1056   1.103       .  S
C1051      H1057   1.104   1_554  S
C1054      H1058   1.109       .  S
C1054      H1059   1.103       .  S
C1054      H1060   1.110       .  S
C1061      C1062   1.394       .  A
C1061      C1066   1.403       .  A
C1061      H1068   1.064       .  S
C1062      C1063   1.417       .  A
C1063      C1064   1.427       .  A
C1063      C1070   1.503       .  S
C1064      C1065   1.423       .  A
C1064      H1069   1.081       .  S
C1065      C1066   1.406       .  A
C1066      C1067   1.500       .  S
C1067      H1071   1.110       .  S
C1067      H1072   1.103       .  S
C1067      H1073   1.109       .  S
C1070      H1074   1.110       .  S
C1070      H1075   1.110       .  S
C1070      H1076   1.111       .  S
C1077      C1078   1.397       .  A
C1077      C1082   1.397       .  A
C1077      H1084   1.079       .  S
C1078      C1079   1.411       .  A
C1079      C1080   1.403       .  A
C1079      C1086   1.506       .  S
C1080      C1081   1.411       .  A
C1080      H1085   1.084       .  S
C1081      C1082   1.433       .  A
C1082      C1083   1.516       .  S
C1083      H1087   1.108       .  S
C1083      H1088   1.098       .  S
C1083      H1089   1.108       .  S
C1086      H1090   1.108       .  S
C1086      H1091   1.110       .  S
C1086      H1092   1.110       .  S
C1093      C1094   1.394       .  A
C1093      C1098   1.399       .  A
C1093      H1100   1.076       .  S
C1094      C1095   1.418       .  A
C1095      C1096   1.420       .  A
C1095      C1102   1.504       .  S
C1096      C1097   1.410       .  A
C1096      H1101   1.084       .  S
C1097      C1098   1.432       .  A
C1098      C1099   1.515       .  S
C1099      H1103   1.109       .  S
C1099      H1104   1.104       .  S
C1099      H1105   1.110       .  S
C1102      H1106   1.109       .  S
C1102      H1107   1.110       .  S
C1102      H1108   1.110       .  S
C1109      C1110   1.416       .  A
C1109      C1114   1.427       .  A
C1109      H1116   1.083       .  S
C1110      C1111   1.414       .  A
C1111      C1112   1.391       .  A
C1111      C1118   1.489       .  S
C1112      C1113   1.385       .  A
C1112      H1117   1.061       .  S
C1113      C1114   1.416       .  A
C1114      C1115   1.502       .  S
C1115      H1119   1.110       .  S
C1115      H1120   1.110       .  S
C1115      H1121   1.111       .  S
C1118      H1122   1.096   1_655  S
C1118      H1123   1.087       .  S
C1118      H1124   1.109       .  S
C1125      C1126   1.413       .  A
C1125      C1130   1.417       .  A
C1125      H1132   1.084       .  S
C1126      C1127   1.419       .  A
C1127      C1128   1.395       .  A
C1127      C1134   1.505       .  S
C1128      C1129   1.399       .  A
C1128      H1133   1.077       .  S
C1129      C1130   1.412       .  A
C1130      C1131   1.504       .  S
C1131      H1135   1.111       .  S
C1131      H1136   1.110       .  S
C1131      H1137   1.111       .  S
C1134      H1138   1.107   1_655  S
C1134      H1139   1.100       .  S
C1134      H1140   1.106       .  S
C1141      C1142   1.409       .  A
C1141      C1146   1.413       .  A
C1141      H1148   1.084       .  S
C1142      C1143   1.419       .  A
C1143      C1144   1.385       .  A
C1143      C1150   1.506       .  S
C1144      C1145   1.393       .  A
C1144      H1149   1.076       .  S
C1145      C1146   1.415       .  A
C1146      C1147   1.504       .  S
C1147      H1151   1.110       .  S
C1147      H1152   1.109       .  S
C1147      H1153   1.110       .  S
C1150      H1154   1.090       .  S
C1150      H1155   1.110       .  S
C1150      H1156   1.104       .  S
C1157      C1158   1.406       .  A
C1157      C1162   1.406       .  A
C1157      H1164   1.084       .  S
C1158      C1159   1.419       .  A
C1159      C1160   1.392       .  A
C1159      C1166   1.509       .  S
C1160      C1161   1.406       .  A
C1160      H1165   1.084       .  S
C1161      C1162   1.416       .  A
C1162      C1163   1.505       .  S
C1163      H1167   1.111       .  S
C1163      H1168   1.110       .  S
C1163      H1169   1.107       .  S
C1166      H1170   1.095       .  S
C1166      H1171   1.102       .  S
C1166      H1172   1.107       .  S
C1173      C1174   1.412       .  A
C1173      C1178   1.412       .  A
C1173      H1180   1.082       .  S
C1174      C1175   1.416       .  A
C1175      C1176   1.403       .  A
C1175      C1182   1.491       .  S
C1176      C1177   1.398       .  A
C1176      H1181   1.084       .  S
C1177      C1178   1.413       .  A
C1178      C1179   1.504       .  S
C1179      H1183   1.111       .  S
C1179      H1184   1.110       .  S
C1179      H1185   1.108       .  S
C1182      H1186   1.104       .  S
C1182      H1187   1.107       .  S
C1182      H1188   1.111       .  S
C1189      C1190   1.386       .  A
C1189      C1194   1.380   1_545  A
C1189      H1196   1.065       .  S
C1190      C1191   1.422       .  A
C1191      C1192   1.420   1_545  A
C1191      C1198   1.502       .  S
C1192      C1193   1.410       .  A
C1192      H1197   1.080       .  S
C1193      C1194   1.414       .  A
C1194      C1195   1.494       .  S
C1195      H1199   1.110       .  S
C1195      H1200   1.083       .  S
C1195      H1201   1.111       .  S
C1198      H1202   1.105       .  S
C1198      H1203   1.110       .  S
C1198      H1204   1.110       .  S
C1205      C1206   1.400       .  A
C1205      C1210   1.408       .  A
C1205      H1212   1.080       .  S
C1206      C1207   1.411       .  A
C1207      C1208   1.410       .  A
C1207      C1214   1.504       .  S
C1208      C1209   1.411       .  A
C1208      H1213   1.080       .  S
C1209      C1210   1.417       .  A
C1210      C1211   1.497       .  S
C1211      H1215   1.111       .  S
C1211      H1216   1.108       .  S
C1211      H1217   1.109       .  S
C1214      H1218   1.110       .  S
C1214      H1219   1.108       .  S
C1214      H1220   1.110       .  S
C1221      C1222   1.399       .  A
C1221      C1226   1.386       .  A
C1221      H1228   1.085       .  S
C1222      C1223   1.415       .  A
C1223      C1224   1.416       .  A
C1223      C1230   1.504       .  S
C1224      C1225   1.413       .  A
C1224      H1229   1.081       .  S
C1225      C1226   1.428       .  A
C1226      C1227   1.502       .  S
C1227      H1231   1.111       .  S
C1227      H1232   1.087       .  S
C1227      H1233   1.108       .  S
C1230      H1234   1.110       .  S
C1230      H1235   1.110       .  S
C1230      H1236   1.111       .  S
C1237      C1238   1.406       .  A
C1237      C1242   1.414       .  A
C1237      H1244   1.084       .  S
C1238      C1239   1.420       .  A
C1239      C1240   1.389       .  A
C1239      C1246   1.491       .  S
C1240      C1241   1.397       .  A
C1240      H1245   1.085       .  S
C1241      C1242   1.423       .  A
C1242      C1243   1.506       .  S
C1243      H1247   1.111       .  S
C1243      H1248   1.107       .  S
C1243      H1249   1.110       .  S
C1246      H1250   1.109       .  S
C1246      H1251   1.091       .  S
C1246      H1252   1.107       .  S
C1253      C1254   1.409       .  A
C1253      C1258   1.419       .  A
C1253      H1260   1.084       .  S
C1254      C1255   1.414       .  A
C1255      C1256   1.410       .  A
C1255      C1262   1.504       .  S
C1256      C1257   1.410       .  A
C1256      H1261   1.080       .  S
C1257      C1258   1.413       .  A
C1258      C1259   1.508       .  S
C1259      H1263   1.111       .  S
C1259      H1264   1.111       .  S
C1259      H1265   1.111       .  S
C1262      H1266   1.108       .  S
C1262      H1267   1.110       .  S
C1262      H1268   1.111       .  S
C1269      C1270   1.380       .  A
C1269      C1274   1.373   1_455  A
C1269      H1276   1.061       .  S
C1270      C1271   1.422       .  A
C1271      C1272   1.432   1_455  A
C1271      C1278   1.499       .  S
C1272      C1273   1.419       .  A
C1272      H1277   1.083       .  S
C1273      C1274   1.421       .  A
C1274      C1275   1.491       .  S
C1275      H1279   1.108       .  S
C1275      H1280   1.067       .  S
C1275      H1281   1.111       .  S
C1278      H1282   1.109       .  S
C1278      H1283   1.110       .  S
C1278      H1284   1.110       .  S
C1285      C1286   1.408       .  A
C1285      C1290   1.416       .  A
C1285      H1292   1.077       .  S
C1286      C1287   1.419       .  A
C1287      C1288   1.403       .  A
C1287      C1294   1.503       .  S
C1288      C1289   1.398       .  A
C1288      H1293   1.084       .  S
C1289      C1290   1.418       .  A
C1290      C1291   1.510       .  S
C1291      H1295   1.109       .  S
C1291      H1296   1.106       .  S
C1291      H1297   1.110       .  S
C1294      H1298   1.107       .  S
C1294      H1299   1.110       .  S
C1294      H1300   1.110       .  S
C1301      C1302   1.419       .  A
C1301      C1306   1.424       .  A
C1301      H1308   1.083       .  S
C1302      C1303   1.421       .  A
C1303      C1304   1.386       .  A
C1303      C1310   1.500       .  S
C1304      C1305   1.403       .  A
C1304      H1309   1.085       .  S
C1305      C1306   1.416       .  A
C1306      C1307   1.504       .  S
C1307      H1311   1.111       .  S
C1307      H1312   1.110       .  S
C1307      H1313   1.109       .  S
C1310      H1314   1.087       .  S
C1310      H1315   1.110       .  S
C1310      H1316   1.110       .  S
C1317      C1318   1.393       .  A
C1317      C1322   1.395       .  A
C1317      H1324   1.072       .  S
C1318      C1319   1.416       .  A
C1319      C1320   1.423       .  A
C1319      C1326   1.504       .  S
C1320      C1321   1.414       .  A
C1320      H1325   1.083       .  S
C1321      C1322   1.426       .  A
C1322      C1323   1.521       .  S
C1323      H1327   1.104       .  S
C1323      H1328   1.106       .  S
C1323      H1329   1.107       .  S
C1326      H1330   1.108       .  S
C1326      H1331   1.110       .  S
C1326      H1332   1.110       .  S
C1333      C1334   1.385       .  A
C1333      C1338   1.387       .  A
C1333      H1340   1.084       .  S
C1334      C1335   1.414       .  A
C1335      C1336   1.411       .  A
C1335      C1342   1.504       .  S
C1336      C1337   1.408       .  A
C1336      H1341   1.084       .  S
C1337      C1338   1.416       .  A
C1338      C1339   1.483       .  S
C1339      H1343   1.092       .  S
C1339      H1344   1.095       .  S
C1339      H1345   1.105       .  S
C1342      H1346   1.110       .  S
C1342      H1347   1.111       .  S
C1342      H1348   1.111       .  S
C1349      C1350   1.392       .  A
C1349      C1354   1.386   1_565  A
C1349      H1356   1.071       .  S
C1350      C1351   1.405       .  A
C1351      C1352   1.418   1_565  A
C1351      C1358   1.504       .  S
C1352      C1353   1.419       .  A
C1352      H1357   1.061       .  S
C1353      C1354   1.426       .  A
C1354      C1355   1.499       .  S
C1355      H1359   1.082       .  S
C1355      H1360   1.109       .  S
C1355      H1361   1.103       .  S
C1358      H1362   1.104       .  S
C1358      H1363   1.109       .  S
C1358      H1364   1.110       .  S
C1365      C1366   1.419       .  A
C1365      C1370   1.430   1_455  A
C1365      H1372   1.080       .  S
C1366      C1367   1.413       .  A
C1367      C1368   1.386   1_455  A
C1367      C1374   1.500       .  S
C1368      C1369   1.396       .  A
C1368      H1373   1.069       .  S
C1369      C1370   1.427       .  A
C1370      C1371   1.502       .  S
C1371      H1375   1.110       .  S
C1371      H1376   1.110       .  S
C1371      H1377   1.109       .  S
C1374      H1378   1.087       .  S
C1374      H1379   1.107       .  S
C1374      H1380   1.107       .  S
