geometry optimzed in LAMMPS
_audit_creation_date              2020-12-01 
_audit_creation_method            'lammps2cif' 
_symmetry_space_group_name_H-M    'P1' 
_symmetry_Int_Tables_number       1 
_symmetry_cell_setting            triclinic 
loop_ 
_symmetry_equiv_pos_as_xyz 
  x,y,z 
_cell_length_a                    58.38262248 
_cell_length_b                    58.406370337953135 
_cell_length_c                    58.444635349780945 
_cell_angle_alpha                 89.99910421245282 
_cell_angle_beta                  89.802019684193 
_cell_angle_gamma                 89.70618887546182 
loop_ 
_atom_site_label 
_atom_site_type_symbol 
_atom_site_fract_x 
_atom_site_fract_y 
_atom_site_fract_z 
_atom_site_charge 
C1          C  0.10093562  0.10047490  0.10038184     0.87000
C2          C  0.08472420  0.11555579  0.11479637    -0.53200
C3          C  0.09533860  0.12872554  0.13076061     0.09900
C4          C  0.12184031  0.12629043  0.13063167     0.20900
C5          C  0.11757257  0.11855424  0.09017000    -0.53900
C6          C  0.12913560  0.13149381  0.10590594     0.10000
C7          C  0.11547799  0.08731102  0.11814681    -0.53500
C8          C  0.12699985  0.10054666  0.13370933     0.10600
H9          H  0.06627942  0.11597835  0.11244379     0.15100
H10         H  0.13068659  0.13722136  0.14313818     0.00900
H11         H  0.11936845  0.12258595  0.07227742     0.15400
H12         H  0.11651308  0.06876207  0.11811287     0.15200
C13         C  0.89140359  0.10603516  0.89912812     0.87000
C14         C  0.90354687  0.12326703  0.88296548    -0.53200
C15         C  0.88937090  0.13829675  0.87170907     0.09900
C16         C  0.86393021  0.13453023  0.87771010     0.20900
C17         C  0.87668331  0.12076867  0.91505357    -0.53900
C18         C  0.86230288  0.13549037  0.90419704     0.10000
C19         C  0.87406817  0.09454275  0.88267652    -0.53500
C20         C  0.85959379  0.10930003  0.87127062     0.10600
H21         H  0.92171195  0.12276523  0.87939157     0.15100
H22         H  0.85256490  0.14668562  0.86876906     0.00900
H23         H  0.87730088  0.11938261  0.93357921     0.15400
H24         H  0.87371205  0.07621266  0.87986311     0.15200
C25         C  0.89443063  0.89604724  0.10278404     0.87000
C26         C  0.87820865  0.91034761  0.11809122    -0.53200
C27         C  0.86449716  0.89798152  0.13238938     0.09900
C28         C  0.86860762  0.87197817  0.13067389     0.20900
C29         C  0.90788094  0.88179290  0.12079583    -0.53900
C30         C  0.89443605  0.86886884  0.13500840     0.10000
C31         C  0.87886563  0.87856263  0.09083291    -0.53500
C32         C  0.86519270  0.86598575  0.10519226     0.10600
H33         H  0.87805284  0.92889962  0.11827722     0.15100
H34         H  0.85772542  0.86197728  0.14259250     0.00900
H35         H  0.92629452  0.88218499  0.12290930     0.15400
H36         H  0.87872300  0.87639709  0.07238377     0.15200
C37         C  0.10057954  0.89304820  0.89199742     0.87000
C38         C  0.08751556  0.87456120  0.87827499    -0.53200
C39         C  0.10091004  0.86135337  0.86427738     0.09900
C40         C  0.12662016  0.86667097  0.86618628     0.20900
C41         C  0.11820074  0.87827887  0.90525187    -0.53900
C42         C  0.13193628  0.86464491  0.89190107     0.10000
C43         C  0.11484584  0.90593719  0.87386272    -0.53500
C44         C  0.12878860  0.89239899  0.86047126     0.10600
H45         H  0.06941767  0.87105120  0.87989848     0.15100
H46         H  0.13752559  0.85527367  0.85552803     0.00900
H47         H  0.11924161  0.87797923  0.92376918     0.15400
H48         H  0.11387328  0.92439449  0.87191870     0.15200
C49         C  0.99706671  0.99756243  0.99653521    -0.02000
C50         C  0.74496980  0.74528781  0.54489158     0.80700
N51         N  0.76713225  0.73815689  0.54284534    -0.77600
C52         C  0.78363918  0.75308872  0.53614656     0.83200
N53         N  0.77780645  0.77511874  0.53162364    -0.77500
C54         C  0.75588549  0.78245269  0.53390545     0.83300
N55         N  0.73941682  0.76753397  0.54063578    -0.79200
C56         C  0.54933244  0.74820045  0.73840354     0.80700
N57         N  0.54562517  0.74366523  0.76100815    -0.77600
C58         C  0.54088134  0.76099060  0.77588206     0.83200
N59         N  0.54014232  0.78275949  0.76798168    -0.77500
C60         C  0.54339839  0.78743652  0.74558705     0.83300
N61         N  0.54792575  0.77017814  0.73070132    -0.79200
C62         C  0.45518906  0.74436684  0.24048663     0.80700
N63         N  0.45814071  0.73866674  0.21806714    -0.77600
C64         C  0.46358360  0.75493521  0.20242884     0.83200
N65         N  0.46641673  0.77689126  0.20919263    -0.77500
C66         C  0.46383490  0.78290027  0.23146697     0.83300
N67         N  0.45805607  0.76658870  0.24706445    -0.79200
C68         C  0.74805884  0.43147589  0.24546698     0.80700
N69         N  0.73873657  0.43985176  0.22580565    -0.77600
C70         C  0.75244020  0.44938391  0.20963637     0.83200
N71         N  0.77525327  0.45023138  0.21325362    -0.77500
C72         C  0.78502711  0.44158944  0.23235964     0.83300
N73         N  0.77119269  0.43231280  0.24870872    -0.79200
O74         O  0.50877111  0.73269326  0.95635286    -0.73900
O75         O  0.49656759  0.73099219  0.02058868    -0.73900
O76         O  0.47029303  0.73264314  0.98241630    -0.74000
O77         O  0.53504950  0.73165502  0.99447902    -0.74000
O78         O  0.53477696  0.76978323  0.99594743    -0.74000
O79         O  0.47076081  0.77074361  0.98335430    -0.73900
O80         O  0.49610722  0.76886381  0.02182370    -0.73900
O81         O  0.50941723  0.77086842  0.95736431    -0.74000
Ni82       Ni  0.50266386  0.73063317  0.98841080     1.25400
Ni83       Ni  0.50277988  0.77140685  0.98964878     1.25400
C84         C  0.51124306  0.75197255  0.94629227     0.88300
C85         C  0.49406621  0.74951863  0.03203114     0.88200
C86         C  0.45984159  0.75198146  0.98096106     0.88200
C87         C  0.54552222  0.75070682  0.99732434     0.88400
O88         O  0.72122005  0.50258214  0.96851802    -0.73900
O89         O  0.72129585  0.49285700  0.03316395    -0.73900
O90         O  0.72319178  0.53033154  0.00597758    -0.74000
O91         O  0.71982211  0.46525474  0.99610922    -0.74000
O92         O  0.75798893  0.46339943  0.99491975    -0.74000
O93         O  0.76129523  0.52794645  0.00599378    -0.73900
O94         O  0.75940019  0.49017715  0.03279385    -0.73900
O95         O  0.75942491  0.50119768  0.96801939    -0.74000
Ni96       Ni  0.72002868  0.49787121  0.00090701     1.25400
Ni97       Ni  0.76088555  0.49562795  0.00038347     1.25400
C98         C  0.74024110  0.50338433  0.95761053     0.88300
C99         C  0.74026037  0.48970119  0.04363120     0.88200
C100        C  0.74287999  0.53977579  0.00813162     0.88200
C101        C  0.73842501  0.45364016  0.99401617     0.88400
C102        C  0.75050639  0.74801604  0.04838214     0.80700
N103        N  0.72839807  0.75401545  0.04373248    -0.77600
C104        C  0.71292891  0.73781872  0.03763113     0.83200
N105        N  0.71964172  0.71563097  0.03621451    -0.77500
C106        C  0.74155295  0.70940756  0.04062419     0.83300
N107        N  0.75706492  0.72560409  0.04671377    -0.79200
C108        C  0.74533632  0.54348734  0.75028589     0.80700
N109        N  0.76822632  0.54325506  0.74541746    -0.77600
C110        C  0.78358653  0.53700816  0.76177495     0.83200
N111        N  0.77579748  0.53073165  0.78266139    -0.77500
C112        C  0.75317271  0.53056350  0.78777547     0.83300
N113        N  0.73785574  0.53717694  0.77151362    -0.79200
C114        C  0.24568114  0.74272172  0.44687809     0.80700
N115        N  0.22376916  0.73513535  0.44965879    -0.77600
C116        C  0.20661555  0.75010045  0.45495994     0.83200
N117        N  0.21128240  0.77268751  0.45721639    -0.77500
C118        C  0.23296146  0.78043835  0.45465552     0.83300
N119        N  0.25013978  0.76543423  0.44967777    -0.79200
O120        O  0.98733573  0.75232601  0.46046170    -0.73900
O121        O  0.00020097  0.75632595  0.52422999    -0.73900
O122        O  0.02617712  0.75420779  0.48598276    -0.74000
O123        O  0.96150024  0.75368712  0.49882674    -0.74000
O124        O  0.96262620  0.71555349  0.50110758    -0.74000
O125        O  0.02684727  0.71610807  0.48833515    -0.73900
O126        O  0.00075678  0.71839424  0.52701159    -0.73900
O127        O  0.98830396  0.71425781  0.46228445    -0.74000
Ni128      Ni  0.99378667  0.75546461  0.49227065     1.25400
Ni129      Ni  0.99470886  0.71470500  0.49472860     1.25400
C130        C  0.98552091  0.73280553  0.45075124     0.88300
C131        C  0.00232592  0.73823849  0.53638090     0.88200
C132        C  0.03717632  0.73513601  0.48526409     0.88200
C133        C  0.95153878  0.73444253  0.50220156     0.88400
O134        O  0.02897366  0.49171026  0.73654980    -0.73900
O135        O  0.96491707  0.50537646  0.73555117    -0.73900
O136        O  0.00338936  0.53077796  0.73507983    -0.74000
O137        O  0.99042523  0.46664347  0.73727681    -0.74000
O138        O  0.99000171  0.46785046  0.77537472    -0.74000
O139        O  0.00310486  0.53208960  0.77315924    -0.73900
O140        O  0.96439736  0.50648173  0.77372516    -0.73900
O141        O  0.02883646  0.49305248  0.77470142    -0.74000
Ni142      Ni  0.99698719  0.49862146  0.73478194     1.25400
Ni143      Ni  0.99661143  0.49997423  0.77562015     1.25400
C144        C  0.03932890  0.48956893  0.75570410     0.88300
C145        C  0.95408927  0.50796695  0.75444743     0.88200
C146        C  0.00506610  0.54214361  0.75375227     0.88200
C147        C  0.98793522  0.45666164  0.75664620     0.88400
C148        C  0.04220174  0.75007087  0.74436242     0.80700
N149        N  0.03703037  0.72822260  0.75067178    -0.77600
C150        C  0.02945942  0.71288916  0.73490561     0.83200
N151        N  0.02689090  0.71967725  0.71288568    -0.77500
C152        C  0.03191742  0.74134999  0.70636517     0.83300
N153        N  0.03971423  0.75659659  0.72209577    -0.79200
C154        C  0.24539990  0.44495391  0.74589641     0.80700
N155        N  0.22253759  0.44434592  0.74122030    -0.77600
C156        C  0.20696882  0.44944579  0.75782966     0.83200
N157        N  0.21431498  0.45543956  0.77889139    -0.77500
C158        C  0.23691733  0.45667421  0.78375113     0.83300
N159        N  0.25248245  0.45126881  0.76720350    -0.79200
C160        C  0.74814798  0.24630578  0.45453335     0.80700
N161        N  0.76953364  0.25397985  0.45956544    -0.77600
C162        C  0.78643858  0.23880020  0.46476190     0.83200
N163        N  0.78189052  0.21610547  0.46485192    -0.77500
C164        C  0.76070123  0.20831200  0.45990624     0.83300
N165        N  0.74373588  0.22343938  0.45478041    -0.79200
O166        O  0.77605578  0.98819755  0.47220313    -0.73900
O167        O  0.77395068  0.00461992  0.53544717    -0.73900
O168        O  0.77352191  0.96469241  0.51201083    -0.74000
O169        O  0.77616563  0.02821971  0.49575138    -0.74000
O170        O  0.73795861  0.02943742  0.49496181    -0.74000
O171        O  0.73571191  0.96576403  0.50959248    -0.73900
O172        O  0.73584530  0.00491954  0.53434511    -0.73900
O173        O  0.73801850  0.99033076  0.47054979    -0.74000
Ni174      Ni  0.77628742  0.99639148  0.50390231     1.25400
Ni175      Ni  0.73553112  0.99767622  0.50234606     1.25400
C176        C  0.75740701  0.98668887  0.46085434     0.88300
C177        C  0.75458383  0.00720005  0.54546199     0.88200
C178        C  0.75417816  0.95447657  0.51327283     0.88200
C179        C  0.75738695  0.03923601  0.49271320     0.88400
O180        O  0.49070151  0.03091392  0.72761185    -0.73900
O181        O  0.50529329  0.96744662  0.72469445    -0.73900
O182        O  0.46593806  0.99203793  0.72658704    -0.74000
O183        O  0.53001388  0.00667555  0.72624538    -0.74000
O184        O  0.53001538  0.00593827  0.76440768    -0.74000
O185        O  0.46666057  0.98950121  0.76462718    -0.73900
O186        O  0.50694137  0.96572367  0.76252336    -0.73900
O187        O  0.49020333  0.02938880  0.76576025    -0.74000
Ni188      Ni  0.49796377  0.99926170  0.72494864     1.25400
Ni189      Ni  0.49844324  0.99749191  0.76570884     1.25400
C190        C  0.48828370  0.04068206  0.74703640     0.88300
C191        C  0.50891355  0.95593632  0.74293375     0.88200
C192        C  0.45569606  0.98857078  0.74571808     0.88200
C193        C  0.54033618  0.00939383  0.74538585     0.88400
C194        C  0.74570867  0.05509118  0.75103458     0.80700
N195        N  0.75305573  0.04959537  0.72957199    -0.77600
C196        C  0.73769902  0.04304828  0.71344539     0.83200
N197        N  0.71513535  0.04244964  0.71874539    -0.77500
C198        C  0.70758975  0.04817165  0.73991343     0.83300
N199        N  0.72295364  0.05436050  0.75619534    -0.79200
C200        C  0.44797223  0.24751766  0.74180004     0.80700
N201        N  0.45273643  0.22511566  0.73741329    -0.77600
C202        C  0.45821013  0.21071126  0.75485175     0.83200
N203        N  0.45886432  0.21888489  0.77653989    -0.77500
C204        C  0.45442698  0.24119685  0.78096590     0.83300
N205        N  0.44890197  0.25556566  0.76360826    -0.79200
O206        O  0.26126213  0.50563920  0.02807445    -0.73900
O207        O  0.26704429  0.49003121  0.96459366    -0.73900
O208        O  0.26862391  0.52941144  0.98888040    -0.74000
O209        O  0.25935441  0.46609470  0.00366612    -0.74000
O210        O  0.22164857  0.47068789  0.99992273    -0.74000
O211        O  0.23096140  0.53355252  0.98395664    -0.73900
O212        O  0.22921847  0.49370898  0.96045204    -0.73900
O213        O  0.22362676  0.51084968  0.02373002    -0.74000
Ni214      Ni  0.26540178  0.49759103  0.99650332     1.25400
Ni215      Ni  0.22501398  0.50234283  0.99191020     1.25400
C216        C  0.24162542  0.51119307  0.03623123     0.88300
C217        C  0.24910640  0.48943801  0.95206881     0.88200
C218        C  0.25123489  0.54183357  0.98371090     0.88200
C219        C  0.23902331  0.45785383  0.00395545     0.88400
C220        C  0.25181320  0.74936269  0.94427490     0.80700
N221        N  0.24789625  0.72640810  0.94583052    -0.77600
C222        C  0.26497386  0.71175656  0.95209916     0.83200
N223        N  0.28592970  0.72036754  0.95687200    -0.77500
C224        C  0.29014080  0.74305032  0.95516450     0.83300
N225        N  0.27314310  0.75756936  0.94870409    -0.79200
O226        O  0.00427766  0.46157980  0.22839554    -0.73900
O227        O  0.98893476  0.52494941  0.22209245    -0.73900
O228        O  0.02848178  0.50108716  0.22755349    -0.74000
O229        O  0.96488582  0.48531035  0.22322714    -0.74000
O230        O  0.96132744  0.48909871  0.26108014    -0.74000
O231        O  0.02520122  0.50332549  0.26550616    -0.73900
O232        O  0.98617872  0.52814558  0.26002989    -0.73900
O233        O  0.00013395  0.46419783  0.26627230    -0.74000
Ni234      Ni  0.99678708  0.49315923  0.22397366     1.25400
Ni235      Ni  0.99311495  0.49632442  0.26458155     1.25400
C236        C  0.00436141  0.45235899  0.24826271     0.88300
C237        C  0.98502305  0.53700018  0.23999008     0.88200
C238        C  0.03736113  0.50467831  0.24726583     0.88200
C239        C  0.95273107  0.48445027  0.24150848     0.88400
C240        C  0.93508695  0.74135410  0.24570737     0.80700
N241        N  0.93954379  0.74500841  0.26830627    -0.77600
C242        C  0.94436789  0.72701851  0.28230263     0.83200
N243        N  0.94471967  0.70555235  0.27359050    -0.77500
C244        C  0.94049334  0.70169684  0.25117882     0.83300
N245        N  0.93577436  0.71965129  0.23715185    -0.79200
C246        C  0.24282524  0.55542647  0.24309493     0.80700
N247        N  0.24728846  0.55591627  0.22011102    -0.77600
C248        C  0.23081907  0.54970983  0.20485217     0.83200
N249        N  0.21028365  0.54276935  0.21299350    -0.77500
C250        C  0.20547450  0.54197827  0.23562660     0.83300
N251        N  0.22185811  0.54848906  0.25078551    -0.79200
O252        O  0.49562619  0.27214330  0.02600393    -0.73900
O253        O  0.48556169  0.27413488  0.96122818    -0.73900
O254        O  0.45802160  0.27599316  0.99893794    -0.74000
O255        O  0.52293699  0.26982494  0.98842180    -0.74000
O256        O  0.51899166  0.23218102  0.98631558    -0.74000
O257        O  0.45524276  0.23793674  0.99966451    -0.73900
O258        O  0.48057528  0.23653691  0.96096288    -0.73900
O259        O  0.49360755  0.23405815  0.02522905    -0.74000
Ni260      Ni  0.49063579  0.27440959  0.99365191     1.25400
Ni261      Ni  0.48698164  0.23386394  0.99301252     1.25400
C262        C  0.49658763  0.25278238  0.03626594     0.88300
C263        C  0.48130602  0.25567247  0.95024359     0.88200
C264        C  0.44606106  0.25777903  0.00143328     0.88200
C265        C  0.53178516  0.24986818  0.98544749     0.88400
C266        C  0.74287707  0.24371854  0.96925854     0.80700
N267        N  0.72124964  0.23550815  0.97214903    -0.77600
C268        C  0.70389859  0.25002117  0.97795086     0.83200
N269        N  0.70814506  0.27263542  0.98040100    -0.77500
C270        C  0.72945253  0.28111607  0.97715725     0.83300
N271        N  0.74687954  0.26659566  0.97148136    -0.79200
O272        O  0.47023817  0.00082873  0.22346446    -0.73900
O273        O  0.53363542  0.98443872  0.22625779    -0.73900
O274        O  0.49378586  0.96116969  0.22751358    -0.74000
O275        O  0.51058658  0.02432057  0.22243813    -0.74000
O276        O  0.50857161  0.02771541  0.26024306    -0.74000
O277        O  0.49384091  0.96410358  0.26553624    -0.73900
O278        O  0.53322977  0.98871022  0.26388912    -0.73900
O279        O  0.46907969  0.00314236  0.26150391    -0.74000
Ni280      Ni  0.50205825  0.99261358  0.22358299     1.25400
Ni281      Ni  0.50112641  0.99605253  0.26415463     1.25400
C282        C  0.45900867  0.00407079  0.24205068     0.88300
C283        C  0.54421360  0.98418337  0.24538302     0.88200
C284        C  0.49115311  0.95220015  0.24735278     0.88200
C285        C  0.51275840  0.03645490  0.24057073     0.88400
C286        C  0.75373718  0.95626340  0.25296944     0.80700
N287        N  0.73150376  0.95821728  0.24631021    -0.77600
C288        C  0.71490541  0.96346879  0.26171736     0.83200
N289        N  0.72032975  0.96634908  0.28400898    -0.77500
C290        C  0.74230871  0.96401388  0.29098865     0.83300
N291        N  0.75902096  0.95905427  0.27547245    -0.79200
C292        C  0.54665963  0.24445668  0.24179446     0.80700
N293        N  0.54022009  0.25185568  0.22058345    -0.77600
C294        C  0.53281144  0.23652543  0.20465298     0.83200
N295        N  0.53224402  0.21396944  0.21013154    -0.77500
C296        C  0.53857213  0.20657317  0.23111103     0.83300
N297        N  0.54573401  0.22180217  0.24698980    -0.79200
O298        O  0.22679425  0.98739250  0.52544697    -0.73900
O299        O  0.23073411  0.00005824  0.46147005    -0.73900
O300        O  0.22812976  0.96148680  0.48709725    -0.74000
O301        O  0.22958854  0.02591682  0.49970684    -0.74000
O302        O  0.26771737  0.02435899  0.50148445    -0.74000
O303        O  0.26623722  0.96003833  0.48890789    -0.73900
O304        O  0.26856818  0.99846682  0.46290590    -0.73900
O305        O  0.26485709  0.98609098  0.52742626    -0.74000
Ni306      Ni  0.22748205  0.99374618  0.49335962     1.25400
Ni307      Ni  0.26821489  0.99216759  0.49524325     1.25400
C308        C  0.24513786  0.98480292  0.53711083     0.88300
C309        C  0.25014394  0.00152490  0.45137046     0.88200
C310        C  0.24695292  0.95014203  0.48595709     0.88200
C311        C  0.24894120  0.03571967  0.50266417     0.88400
C312        C  0.24809600  0.94740407  0.74481039     0.80700
N313        N  0.27063479  0.94971074  0.75043555    -0.77600
C314        C  0.28616554  0.95622603  0.73430576     0.83200
N315        N  0.27907326  0.96062843  0.71268979    -0.77500
C316        C  0.25671587  0.95864147  0.70691391     0.83300
N317        N  0.24129063  0.95187424  0.72297912    -0.79200
O318        O  0.99239580  0.22953668  0.53259868    -0.73900
O319        O  0.00272937  0.22692215  0.46788169    -0.73900
O320        O  0.03016049  0.22688966  0.50516885    -0.74000
O321        O  0.96524734  0.22975219  0.49526265    -0.74000
O322        O  0.96693553  0.26784302  0.49424100    -0.74000
O323        O  0.03164774  0.26497345  0.50366080    -0.73900
O324        O  0.00399045  0.26475086  0.46650073    -0.73900
O325        O  0.99421445  0.26763349  0.53153453    -0.74000
Ni326      Ni  0.99761497  0.22692359  0.50030729     1.25400
Ni327      Ni  0.99931281  0.26764275  0.49896900     1.25400
C328        C  0.99109940  0.24897965  0.54268160     0.88300
C329        C  0.00487575  0.24535542  0.45622065     0.88200
C330        C  0.04165860  0.24552685  0.50568180     0.88200
C331        C  0.95540601  0.24930967  0.49312842     0.88400
C332        C  0.94570536  0.25001069  0.74971867     0.80700
N333        N  0.94740879  0.24436651  0.72711597    -0.77600
C334        C  0.95388427  0.26042833  0.71152365     0.83200
N335        N  0.95862423  0.28195096  0.71864678    -0.77500
C336        C  0.95706843  0.28773799  0.74103565     0.83300
N337        N  0.95056050  0.27172805  0.75658321    -0.79200
C338        C  0.25119930  0.24477373  0.53563169     0.80700
N339        N  0.22902235  0.25059621  0.53097051    -0.77600
C340        C  0.21360635  0.23423068  0.52510272     0.83200
N341        N  0.22031817  0.21206159  0.52441063    -0.77500
C342        C  0.24213826  0.20587508  0.52916272     0.83300
N343        N  0.25766209  0.22227101  0.53463381    -0.79200
C344        C  0.03541270  0.24336985  0.24614557     0.80700
N345        N  0.03061673  0.23593815  0.26775469    -0.77600
C346        C  0.02450931  0.25127375  0.28424119     0.83200
N347        N  0.02351902  0.27381863  0.27915615    -0.77500
C348        C  0.02843211  0.28140840  0.25786168     0.83300
N349        N  0.03439142  0.26617116  0.24124730    -0.79200
C350        C  0.25109899  0.04484671  0.24372819     0.80700
N351        N  0.27349126  0.04248921  0.23730218    -0.77600
C352        C  0.28957448  0.03629869  0.25297194     0.83200
N353        N  0.28320910  0.03226718  0.27486176    -0.77500
C354        C  0.26111662  0.03450072  0.28143271     0.83300
N355        N  0.24501674  0.04091184  0.26593460    -0.79200
C356        C  0.24018764  0.25119628  0.04670044     0.80700
N357        N  0.26305262  0.24804399  0.04311563    -0.77600
C358        C  0.27634844  0.26579654  0.03616729     0.83200
N359        N  0.26668255  0.28666805  0.03298218    -0.77500
C360        C  0.24398645  0.29003649  0.03649396     0.83300
N361        N  0.23064843  0.27229573  0.04338411    -0.79200
C362        C  0.39237661  0.39409687  0.59749389     0.87000
C363        C  0.40610625  0.37549133  0.61046477    -0.53200
C364        C  0.39313362  0.36155619  0.62402245     0.09900
C365        C  0.36726283  0.36656394  0.62271252     0.20900
C366        C  0.37490595  0.37948834  0.58400457    -0.53900
C367        C  0.36163706  0.36512934  0.59697246     0.10000
C368        C  0.37812482  0.40622155  0.61607205    -0.53500
C369        C  0.36462402  0.39215780  0.62911809     0.10600
H370        H  0.42443492  0.37290530  0.60883914     0.15100
H371        H  0.35698229  0.35475315  0.63341253     0.00900
H372        H  0.37377040  0.37963082  0.56552579     0.15400
H373        H  0.37853833  0.42465163  0.61845057     0.15200
C374        C  0.59976594  0.38648287  0.39193492     0.87000
C375        C  0.61796261  0.39597424  0.37479155    -0.53200
C376        C  0.63120177  0.37964799  0.36391089     0.09900
C377        C  0.62572763  0.35532356  0.37217323     0.20900
C378        C  0.58668939  0.36830558  0.37802028    -0.53900
C379        C  0.60012643  0.35231301  0.36717068     0.10000
C380        C  0.61483765  0.37270326  0.40855867    -0.53500
C381        C  0.62801959  0.35630774  0.39850397     0.10600
H382        H  0.62165418  0.41403646  0.37220641     0.15100
H383        H  0.63622224  0.34199439  0.36388638     0.00900
H384        H  0.56816554  0.36862325  0.37645831     0.15400
H385        H  0.61534249  0.37589394  0.42687069     0.15200
C386        C  0.60281319  0.59488564  0.59826439     0.87000
C387        C  0.62072998  0.58211165  0.61290458    -0.53200
C388        C  0.63358350  0.59581528  0.62694398     0.09900
C389        C  0.62745402  0.62146911  0.62482872     0.20900
C390        C  0.58888706  0.60936407  0.61559504    -0.53900
C391        C  0.60152940  0.62302470  0.62964935     0.10000
C392        C  0.61667254  0.61364261  0.58545808    -0.53500
C393        C  0.62984730  0.62722096  0.59924652     0.10600
H394        H  0.62274242  0.56362912  0.61244146     0.15100
H395        H  0.63781360  0.63277521  0.63595480     0.00900
H396        H  0.57034764  0.60954162  0.61618689     0.15400
H397        H  0.61557275  0.61691009  0.56725634     0.15200
C398        C  0.39537528  0.59927536  0.38655797     0.87000
C399        C  0.38038514  0.58773608  0.36795132    -0.53200
C400        C  0.36710823  0.60245489  0.35545368     0.09900
C401        C  0.37090843  0.62777222  0.36157170     0.20900
C402        C  0.40953592  0.61625690  0.37215238    -0.53900
C403        C  0.39701631  0.63118176  0.35914676     0.10000
C404        C  0.37844766  0.61441916  0.40026758    -0.53500
C405        C  0.36565978  0.62947408  0.38745569     0.10600
H406        H  0.38072792  0.56977548  0.36359852     0.15100
H407        H  0.36074043  0.63973915  0.35087397     0.00900
H408        H  0.42811577  0.61599319  0.37165813     0.15400
H409        H  0.37665843  0.61307127  0.41871134     0.15200
C410        C  0.49704457  0.49517635  0.49277904    -0.02000
C411        C  0.42260855  0.54549497  0.41699158    -0.04900
C412        C  0.44067057  0.55515807  0.42966373     0.09200
C413        C  0.44333155  0.57913831  0.42920657    -0.02300
C414        C  0.42865488  0.59315206  0.41574205    -0.00600
C415        C  0.41047515  0.58354773  0.40247031    -0.04200
C416        C  0.40661798  0.55955055  0.40529217     0.02800
C417        C  0.45511550  0.54014967  0.44530704     0.09700
C418        C  0.46123043  0.58960686  0.44276816     0.35600
C419        C  0.38495025  0.54914777  0.39952894     0.39000
C420        C  0.47858771  0.53630416  0.44125984    -0.04600
C421        C  0.49195381  0.52279350  0.45662075     0.02600
C422        C  0.48158839  0.51012157  0.47525982    -0.04200
C423        C  0.45685773  0.51159360  0.47600824    -0.00400
C424        C  0.44476834  0.52859210  0.46365525    -0.03000
C425        C  0.48917391  0.54675839  0.42134053     0.36300
C426        C  0.44239093  0.49384834  0.48531326     0.39900
C427        C  0.51651667  0.52346338  0.45313746     0.39000
C428        C  0.42101421  0.53362399  0.46943347     0.36000
C429        C  0.42014248  0.52075302  0.41637050     0.36700
C430        C  0.43243265  0.61766977  0.41626798     0.39900
N431        N  0.53585101  0.52511789  0.44907170    -0.38200
N432        N  0.49760041  0.55509234  0.40546290    -0.39700
N433        N  0.42997722  0.47980697  0.49160439    -0.37500
N434        N  0.40213523  0.53767776  0.47405944    -0.39900
N435        N  0.47554058  0.59823001  0.45331051    -0.39700
N436        N  0.43622039  0.63709330  0.41660824    -0.37300
N437        N  0.36784841  0.54011773  0.39543426    -0.38300
N438        N  0.41822120  0.50104710  0.41588477    -0.40000
C439        C  0.57818812  0.55995221  0.54628378    -0.04900
C440        C  0.55731927  0.55164024  0.55511347     0.09200
C441        C  0.55226527  0.55551601  0.57838010    -0.02300
C442        C  0.56781207  0.56744482  0.59263135    -0.00600
C443        C  0.58775746  0.57828914  0.58335876    -0.04200
C444        C  0.59355931  0.57241745  0.56031204     0.02800
C445        C  0.54118485  0.53784237  0.54018184     0.09700
C446        C  0.53061835  0.54753508  0.58762824     0.35600
C447        C  0.61607811  0.57699129  0.55103398     0.39000
C448        C  0.53928650  0.51404103  0.54285822    -0.05000
C449        C  0.52512317  0.50082200  0.52817282     0.02600
C450        C  0.51185495  0.51112144  0.50992191    -0.04200
C451        C  0.51217788  0.53599577  0.50970420    -0.00400
C452        C  0.52734243  0.54869713  0.52386799    -0.03000
C453        C  0.55267484  0.50291742  0.56065185     0.36300
C454        C  0.49543655  0.54987999  0.49779967     0.39900
C455        C  0.52615973  0.47628665  0.53168106     0.39000
C456        C  0.52795203  0.57356666  0.52254908     0.36000
C457        C  0.58396289  0.55579081  0.52246895     0.36700
C458        C  0.56348557  0.56700355  0.61706932     0.39900
N459        N  0.52840046  0.45708224  0.53603883    -0.38200
N460        N  0.56320202  0.49411184  0.57493487    -0.39700
N461        N  0.48212997  0.56203777  0.48951563    -0.37500
N462        N  0.52841115  0.59335071  0.52160054    -0.39900
N463        N  0.51327685  0.54130443  0.59490913    -0.39700
N464        N  0.55947058  0.56658103  0.63646803    -0.37300
N465        N  0.63378197  0.58012797  0.54270409    -0.38300
N466        N  0.58883166  0.55295380  0.50346767    -0.40000
C467        C  0.55611609  0.40873098  0.43768171    -0.04900
C468        C  0.55425116  0.43228602  0.43293373     0.09200
C469        C  0.56522910  0.44092780  0.41326565    -0.02300
C470        C  0.57891063  0.42652097  0.39907848    -0.00600
C471        C  0.58281960  0.40303292  0.40492935    -0.04200
C472        C  0.56946721  0.39418303  0.42348460     0.02800
C473        C  0.54007038  0.44806883  0.44802845     0.09700
C474        C  0.56189686  0.46487523  0.40734475     0.35600
C475        C  0.56839194  0.36973591  0.42777384     0.39000
C476        C  0.55079424  0.46291456  0.46342417    -0.04600
C477        C  0.53796078  0.47908550  0.47649378     0.02600
C478        C  0.51309546  0.47950716  0.47624670    -0.04200
C479        C  0.50294229  0.46522595  0.45875276    -0.00400
C480        C  0.51625017  0.44965499  0.44539483    -0.03000
C481        C  0.57565214  0.46201076  0.46514421     0.36300
C482        C  0.47852676  0.46506783  0.45443975     0.39900
C483        C  0.55170652  0.49658523  0.48718810     0.39000
C484        C  0.50526660  0.43451491  0.42907781     0.36000
C485        C  0.54431934  0.39913589  0.45730533     0.36700
C486        C  0.58631000  0.43601805  0.37748280     0.39900
N487        N  0.56379335  0.51022046  0.49479793    -0.38200
N488        N  0.59542533  0.46136114  0.46637720    -0.39700
N489        N  0.45940933  0.46379899  0.44946520    -0.37500
N490        N  0.49658622  0.42227093  0.41622074    -0.39900
N491        N  0.55916012  0.48395791  0.40272037    -0.39700
N492        N  0.59153472  0.44471151  0.36047362    -0.37300
N493        N  0.56699985  0.35033142  0.43142757    -0.38300
N494        N  0.53526724  0.39062739  0.47273045    -0.40000
C495        C  0.44282349  0.43229701  0.57498282    -0.04900
C496        C  0.43420170  0.44043103  0.55404246     0.09200
C497        C  0.41124067  0.43585712  0.54843965    -0.02300
C498        C  0.39730759  0.42254950  0.56320753    -0.00600
C499        C  0.40674328  0.41146835  0.58289364    -0.04200
C500        C  0.42912975  0.41863157  0.58961444     0.02800
C501        C  0.44948751  0.45416612  0.53829731     0.09700
C502        C  0.40175662  0.44476327  0.52733044     0.35600
C503        C  0.43802032  0.41386634  0.61220224     0.39000
C504        C  0.46380077  0.44292082  0.52263230    -0.04600
C505        C  0.48057916  0.45507655  0.50993168     0.02600
C506        C  0.48132894  0.47988956  0.50979549    -0.04200
C507        C  0.46702416  0.49072226  0.52703926    -0.00400
C508        C  0.45157689  0.47793465  0.54088617    -0.03000
C509        C  0.46177923  0.41820295  0.52031882     0.36300
C510        C  0.46641897  0.51530996  0.53029800     0.39900
C511        C  0.49857666  0.44076936  0.50062764     0.39000
C512        C  0.43695438  0.48941694  0.55751817     0.36000
C513        C  0.46604857  0.43819257  0.58151790     0.36700
C514        C  0.37291482  0.42205797  0.55862761     0.39900
N515        N  0.51287612  0.42847399  0.49441278    -0.38200
N516        N  0.46007245  0.39855717  0.51848250    -0.39700
N517        N  0.46465699  0.53466585  0.53419506    -0.37500
N518        N  0.42520099  0.49852606  0.57069048    -0.39900
N519        N  0.39363923  0.45145440  0.51056692    -0.39700
N520        N  0.35352917  0.42179957  0.55455723    -0.37300
N521        N  0.44605622  0.41058766  0.62996671    -0.38300
N522        N  0.48456229  0.44294257  0.58661546    -0.40000
C523        C  0.29775287  0.27567122  0.56975772    -0.04900
C524        C  0.29792233  0.29745454  0.55934864     0.09200
C525        C  0.28315396  0.30185956  0.54078724    -0.02300
C526        C  0.26842039  0.28454442  0.53255841    -0.00600
C527        C  0.26781269  0.26274560  0.54329007    -0.04200
C528        C  0.28266117  0.25851010  0.56200963     0.02800
C529        C  0.31369661  0.31573175  0.56816385     0.09700
C530        C  0.28296090  0.32439328  0.53035890     0.35600
C531        C  0.28186436  0.23682897  0.57409237     0.39000
C532        C  0.33535793  0.31898639  0.55802325    -0.04600
C533        C  0.35098994  0.33481603  0.56742234     0.02600
C534        C  0.34481058  0.34837733  0.58675161    -0.04200
C535        C  0.32271612  0.34529538  0.59652169    -0.00400
C536        C  0.30746894  0.32888525  0.58744087    -0.03000
C537        C  0.34178614  0.30547863  0.53816242     0.36300
C538        C  0.31513544  0.35902372  0.61577454     0.39900
C539        C  0.37411811  0.33545725  0.55826223     0.39000
C540        C  0.28528371  0.32526949  0.59809259     0.36000
C541        C  0.31304672  0.27103704  0.58873558     0.36700
C542        C  0.25441276  0.28909277  0.51259674     0.39900
N543        N  0.39261793  0.33577326  0.55108971    -0.38200
N544        N  0.34684914  0.29474483  0.52227217    -0.39700
N545        N  0.30842647  0.36947960  0.63123755    -0.37500
N546        N  0.26762810  0.32224269  0.60660072    -0.39900
N547        N  0.28276235  0.34242514  0.52214947    -0.39700
N548        N  0.24332350  0.29276248  0.49661920    -0.37300
N549        N  0.28120335  0.21954026  0.58374387    -0.38300
N550        N  0.32526045  0.26741267  0.60387604    -0.40000
C551        C  0.10142373  0.22995264  0.52724575    -0.04900
C552        C  0.11533919  0.24406284  0.51339295     0.09200
C553        C  0.10505147  0.25836830  0.49686980    -0.02300
C554        C  0.08108048  0.25835969  0.49397413    -0.00600
C555        C  0.06702269  0.24473781  0.50826313    -0.04200
C556        C  0.07734933  0.23053594  0.52494850     0.02800
C557        C  0.14092479  0.24324640  0.51561840     0.09700
C558        C  0.11923233  0.27302213  0.48270319     0.35600
C559        C  0.06322982  0.21695675  0.54020590     0.39000
C560        C  0.15426182  0.23208232  0.49875584    -0.04600
C561        C  0.17822680  0.23044992  0.50119864     0.02600
C562        C  0.18909999  0.23968762  0.52072129    -0.04200
C563        C  0.17581175  0.25142893  0.53728312    -0.00400
C564        C  0.15182367  0.25330965  0.53465269    -0.03000
C565        C  0.14321389  0.22178486  0.47909740     0.36300
C566        C  0.18657203  0.26039020  0.55771819     0.39900
C567        C  0.19170216  0.21910546  0.48357401     0.39000
C568        C  0.13823020  0.26518910  0.55178902     0.36000
C569        C  0.11194786  0.21461594  0.54371161     0.36700
C570        C  0.07107023  0.27158703  0.47548607     0.39900
N571        N  0.20243131  0.21002156  0.46954106    -0.38200
N572        N  0.13436622  0.21367425  0.46339353    -0.39700
N573        N  0.19518949  0.26745300  0.57404657    -0.37500
N574        N  0.12734118  0.27457429  0.56549497    -0.39900
N575        N  0.13058751  0.28464088  0.47138386    -0.39700
N576        N  0.06320653  0.28201331  0.46059514    -0.37300
N577        N  0.05193808  0.20618151  0.55240058    -0.38300
N578        N  0.12037151  0.20237919  0.55682821    -0.40000
C579        C  0.00840866  0.22225314  0.39431782    -0.04900
C580        C  0.01254758  0.24235548  0.38180905     0.09200
C581        C  0.01469633  0.26334895  0.39338279    -0.02300
C582        C  0.01248279  0.26441587  0.41744464    -0.00600
C583        C  0.00810805  0.24421385  0.43048624    -0.04200
C584        C  0.00647957  0.22296977  0.41843306     0.02800
C585        C  0.01484639  0.24152028  0.35627710     0.09700
C586        C  0.01920922  0.28401380  0.38032411     0.35600
C587        C  0.00294853  0.20147885  0.43036263     0.39000
C588        C  0.99600989  0.24729434  0.34232172    -0.04600
C589        C  0.99876571  0.24875259  0.31838322     0.02600
C590        C  0.02036510  0.24438341  0.30826297    -0.04200
C591        C  0.03896050  0.23766955  0.32213759    -0.00400
C592        C  0.03618621  0.23619378  0.34609508    -0.03000
C593        C  0.97402013  0.25256563  0.35273504     0.36300
C594        C  0.06135697  0.23397751  0.31192223     0.39900
C595        C  0.97953931  0.25545509  0.30416095     0.39000
C596        C  0.05554857  0.23025718  0.36042381     0.36000
C597        C  0.00590020  0.20074278  0.38213944     0.36700
C598        C  0.01504718  0.28658268  0.42833357     0.39900
N599        N  0.96424075  0.26083747  0.29278935    -0.38200
N600        N  0.95651975  0.25685215  0.36109655    -0.39700
N601        N  0.07921097  0.23119624  0.30368769    -0.37500
N602        N  0.07098162  0.22555758  0.37190483    -0.39900
N603        N  0.02277384  0.30045493  0.36987756    -0.39700
N604        N  0.01712015  0.30436676  0.43679957    -0.37300
N605        N  0.00028409  0.18417475  0.43963125    -0.38300
N606        N  0.00385134  0.18367038  0.37232529    -0.40000
C607        C  0.97778534  0.23661774  0.65566573    -0.04900
C608        C  0.96726721  0.25132366  0.63960614     0.09200
C609        C  0.95041989  0.26707446  0.64701893    -0.02300
C610        C  0.94493946  0.26891927  0.67047052    -0.00600
C611        C  0.95632932  0.25506904  0.68675319    -0.04200
C612        C  0.97220744  0.23834921  0.67917290     0.02800
C613        C  0.97385303  0.25033449  0.61479517     0.09700
C614        C  0.93903238  0.28169156  0.63047479     0.35600
C615        C  0.98345586  0.22352740  0.69561087     0.39000
C616        C  0.96104339  0.23692150  0.59946832    -0.04600
C617        C  0.96651296  0.23675350  0.57592571     0.02600
C618        C  0.98517596  0.24973296  0.56751645    -0.04200
C619        C  0.99786361  0.26336376  0.58290668    -0.00400
C620        C  0.99222879  0.26360746  0.60645624    -0.03000
C621        C  0.94202323  0.22346525  0.60799235     0.36300
C622        C  0.01691656  0.27692200  0.57462537     0.39900
C623        C  0.95209738  0.22413519  0.56021005     0.39000
C624        C  0.00526762  0.27759361  0.62218820     0.36000
C625        C  0.99476550  0.22010401  0.64799341     0.36700
C626        C  0.92737278  0.28498465  0.67786911     0.39900
N627        N  0.94050182  0.21421728  0.54765690    -0.38200
N628        N  0.92686916  0.21275266  0.61487240    -0.39700
N629        N  0.03205777  0.28780992  0.56798984    -0.37500
N630        N  0.01564886  0.28872658  0.63478538    -0.39900
N631        N  0.92997288  0.29331452  0.61722672    -0.39700
N632        N  0.91330478  0.29771246  0.68380785    -0.37300
N633        N  0.99231755  0.21162531  0.70874772    -0.38300
N634        N  0.00836107  0.20698128  0.64182666    -0.40000
C635        C  0.26248590  0.09245685  0.53155642    -0.04900
C636        C  0.25121887  0.10813970  0.51704045     0.09200
C637        C  0.23920428  0.10003724  0.49775961    -0.02300
C638        C  0.23876764  0.07639317  0.49281623    -0.00600
C639        C  0.24969058  0.06063043  0.50758835    -0.04200
C640        C  0.26146663  0.06875264  0.52704448     0.02800
C641        C  0.25123518  0.13319285  0.52247365     0.09700
C642        C  0.22704022  0.11606885  0.48318137     0.35600
C643        C  0.27178385  0.05266434  0.54293026     0.39000
C644        C  0.26658009  0.14811153  0.51126518    -0.04600
C645        C  0.26513963  0.17200055  0.51497761     0.02600
C646        C  0.24787712  0.18105042  0.52940191    -0.04200
C647        C  0.23368066  0.16590626  0.54187965    -0.00400
C648        C  0.23535656  0.14208995  0.53841235    -0.03000
C649        C  0.28334873  0.13884127  0.49538266     0.36300
C650        C  0.21726235  0.17487815  0.55834884     0.39900
C651        C  0.28088702  0.18722826  0.50337566     0.39000
C652        C  0.22028408  0.12672319  0.55077296     0.36000
C653        C  0.27499971  0.10078886  0.55123211     0.36700
C654        C  0.22777874  0.06836941  0.47208916     0.39900
N655        N  0.29363636  0.19934045  0.49428648    -0.38200
N656        N  0.29662348  0.13133882  0.48264759    -0.39700
N657        N  0.20421451  0.18209923  0.57147668    -0.37500
N658        N  0.20831982  0.11444345  0.56067110    -0.39900
N659        N  0.21725164  0.12887232  0.47163605    -0.39700
N660        N  0.21919250  0.06193571  0.45548216    -0.37300
N661        N  0.27986594  0.03977900  0.55563979    -0.38300
N662        N  0.28500033  0.10750820  0.56689599    -0.40000
C663        C  0.23128796  0.01483491  0.38957805    -0.04900
C664        C  0.25242049  0.01727799  0.37835499     0.09200
C665        C  0.27290619  0.01504688  0.39077037    -0.02300
C666        C  0.27235965  0.01027969  0.41448374    -0.00600
C667        C  0.25104923  0.00696780  0.42605595    -0.04200
C668        C  0.23044760  0.00924967  0.41304850     0.02800
C669        C  0.25303346  0.02180514  0.35318002     0.09700
C670        C  0.29465366  0.01781907  0.37898139     0.35600
C671        C  0.20802837  0.00569190  0.42322513     0.39000
C672        C  0.25304846  0.04449606  0.34489115    -0.04600
C673        C  0.25398754  0.04868744  0.32113822     0.02600
C674        C  0.25531987  0.03020188  0.30565146    -0.04200
C675        C  0.25494028  0.00750733  0.31393102    -0.00400
C676        C  0.25354039  0.00331677  0.33764334    -0.03000
C677        C  0.25280961  0.06346680  0.36088986     0.36300
C678        C  0.25660073  0.98848770  0.29803099     0.39900
C679        C  0.25455010  0.07200304  0.31262729     0.39000
C680        C  0.25312353  0.97999515  0.34616094     0.36000
C681        C  0.21025543  0.01830671  0.37679880     0.36700
C682        C  0.29400300  0.00914212  0.42657727     0.39900
N683        N  0.25499010  0.09058076  0.30576213    -0.38200
N684        N  0.25275098  0.07855720  0.37372060    -0.39700
N685        N  0.25800801  0.97334685  0.28532154    -0.37500
N686        N  0.25277045  0.96141371  0.35302446    -0.39900
N687        N  0.31194844  0.02003778  0.36952223    -0.39700
N688        N  0.31138356  0.00837132  0.43602789    -0.37300
N689        N  0.19005195  0.00283336  0.43110759    -0.38300
N690        N  0.19354125  0.02128077  0.36661178    -0.40000
C691        C  0.25235685  0.98812133  0.64904537    -0.04900
C692        C  0.24177883  0.97102267  0.63578339     0.09200
C693        C  0.23370776  0.95093466  0.64647761    -0.02300
C694        C  0.23759721  0.94725795  0.67004078    -0.00600
C695        C  0.24959669  0.96370810  0.68302457    -0.04200
C696        C  0.25637050  0.98445329  0.67253585     0.02800
C697        C  0.24130179  0.97331037  0.61025650     0.09700
C698        C  0.22196838  0.93378582  0.63301544     0.35600
C699        C  0.26766539  0.00203739  0.68585990     0.39000
C700        C  0.25794033  0.96179370  0.59692798    -0.04600
C701        C  0.25880069  0.96501001  0.57302225     0.02600
C702        C  0.24344899  0.98042265  0.56224146    -0.04200
C703        C  0.22655891  0.99175312  0.57569482    -0.00400
C704        C  0.22533717  0.98792650  0.59953008    -0.03000
C705        C  0.27452458  0.94691081  0.60798824     0.36300
C706        C  0.21096383  0.00813723  0.56532749     0.39900
C707        C  0.27517048  0.95190760  0.55955612     0.39000
C708        C  0.20783443  0.99927505  0.61315115     0.36000
C709        C  0.25965384  0.00928056  0.63830670     0.36700
C710        C  0.23048080  0.92593016  0.68052807     0.39900
N711        N  0.28818787  0.94137944  0.54884485    -0.38200
N712        N  0.28771574  0.93509785  0.61692384    -0.39700
N713        N  0.19853666  0.02122418  0.55707833    -0.37500
N714        N  0.19386019  0.00832285  0.62400561    -0.39900
N715        N  0.21260992  0.92011178  0.62224822    -0.39700
N716        N  0.22484828  0.90890789  0.68892187    -0.37300
N717        N  0.27674687  0.01603756  0.69644926    -0.38300
N718        N  0.26528527  0.02618381  0.62967593    -0.40000
C719        C  0.59205867  0.29826788  0.33024746    -0.04900
C720        C  0.57761929  0.30650311  0.31286961     0.09200
C721        C  0.57010683  0.32941013  0.31338360    -0.02300
C722        C  0.57664761  0.34403982  0.33144291    -0.00600
C723        C  0.59146832  0.33604031  0.34906618    -0.04200
C724        C  0.59931579  0.31293251  0.34799932     0.02800
C725        C  0.56966533  0.29074534  0.29434159     0.09700
C726        C  0.55580383  0.33798327  0.29498173     0.35600
C727        C  0.61514087  0.30366811  0.36465009     0.39000
C728        C  0.54861349  0.27925414  0.29676959    -0.04600
C729        C  0.54096805  0.26435076  0.27944276     0.02600
C730        C  0.55435474  0.26084897  0.25953807    -0.04200
C731        C  0.57578908  0.27176944  0.25747238    -0.00400
C732        C  0.58333011  0.28685688  0.27473549    -0.03000
C733        C  0.53508263  0.28249936  0.31739371     0.36300
C734        C  0.59074170  0.26629729  0.23836448     0.39900
C735        C  0.51941855  0.25240483  0.28224549     0.39000
C736        C  0.60535506  0.29804109  0.27260654     0.36000
C737        C  0.59947207  0.27448823  0.32977424     0.36700
C738        C  0.56830891  0.36746412  0.33121398     0.39900
N739        N  0.50228529  0.24279362  0.28458844    -0.38200
N740        N  0.52446370  0.28513110  0.33395065    -0.39700
N741        N  0.60287569  0.26165425  0.22335006    -0.37500
N742        N  0.62296150  0.30691683  0.27095634    -0.39900
N743        N  0.54450391  0.34478967  0.28021757    -0.39700
N744        N  0.56108871  0.38595196  0.33101576    -0.37300
N745        N  0.62831483  0.29522879  0.37678914    -0.38300
N746        N  0.60533339  0.25553258  0.32941645    -0.40000
C747        C  0.55473338  0.14386568  0.23461455    -0.04900
C748        C  0.53317266  0.13389872  0.23900454     0.09200
C749        C  0.51390104  0.14806353  0.24303096    -0.02300
C750        C  0.51595304  0.17203330  0.24163895    -0.00600
C751        C  0.53729138  0.18192368  0.23633049    -0.04200
C752        C  0.55680772  0.16788776  0.23345770     0.02800
C753        C  0.53031114  0.10847995  0.23843149     0.09700
C754        C  0.49183270  0.13787652  0.24804186     0.35600
C755        C  0.57885769  0.17821196  0.22868225     0.39000
C756        C  0.53684779  0.09497465  0.25727230    -0.04600
C757        C  0.53216492  0.07129211  0.25748574     0.02600
C758        C  0.52023314  0.06096098  0.23901218    -0.04200
C759        C  0.51538540  0.07442208  0.21934696    -0.00400
C760        C  0.52028405  0.09805239  0.21920289    -0.03000
C761        C  0.54824484  0.10558257  0.27655810     0.36300
C762        C  0.50550846  0.06429883  0.19902197     0.39900
C763        C  0.54066196  0.05755062  0.27636531     0.39000
C764        C  0.51481740  0.11184577  0.19926217     0.36000
C765        C  0.57456148  0.12938309  0.23049272     0.36700
C766        C  0.49606290  0.18655032  0.24543031     0.39900
N767        N  0.54762953  0.04664072  0.29136561    -0.38200
N768        N  0.55742522  0.11409472  0.29185117    -0.39700
N769        N  0.49807826  0.05642444  0.18248269    -0.37500
N770        N  0.51046239  0.12290029  0.18341453    -0.39900
N771        N  0.47424385  0.12967546  0.25193884    -0.39700
N772        N  0.48020080  0.19811792  0.24853098    -0.37300
N773        N  0.59641542  0.18655918  0.22495967    -0.38300
N774        N  0.59038844  0.11782220  0.22719853    -0.40000
C775        C  0.39511823  0.00101934  0.25557064    -0.04900
C776        C  0.38610765  0.01744111  0.24033101     0.09200
C777        C  0.40077064  0.02864046  0.22482762    -0.02300
C778        C  0.42450375  0.02394924  0.22496772    -0.00600
C779        C  0.43384732  0.00841224  0.24108959    -0.04200
C780        C  0.41889530  0.99660400  0.25609004     0.02800
C781        C  0.36130222  0.02383740  0.24156885     0.09700
C782        C  0.39137008  0.04523042  0.20889902     0.35600
C783        C  0.42778995  0.97926872  0.27153095     0.39000
C784        C  0.35414843  0.04125501  0.25672534    -0.04600
C785        C  0.33066393  0.04621484  0.25944667     0.02600
C786        C  0.31414150  0.03384981  0.24690110    -0.04200
C787        C  0.32137599  0.01704334  0.23103674    -0.00400
C788        C  0.34493697  0.01202286  0.22841633    -0.03000
C789        C  0.37101437  0.05361696  0.27000997     0.36300
C790        C  0.30453640  0.00390268  0.21853278     0.39900
C791        C  0.32347258  0.06380979  0.27552468     0.39000
C792        C  0.35236129  0.99414191  0.21282958     0.36000
C793        C  0.37979392  0.98860350  0.27065592     0.36700
C794        C  0.43917845  0.03552303  0.20868549     0.39900
N795        N  0.31772227  0.07775431  0.28842075    -0.38200
N796        N  0.38452440  0.06340673  0.28058859    -0.39700
N797        N  0.29103978  0.99339370  0.20865098    -0.37500
N798        N  0.35833239  0.97983182  0.20044695    -0.39900
N799        N  0.38384439  0.05846860  0.19621521    -0.39700
N800        N  0.45055051  0.04475908  0.19537645    -0.37300
N801        N  0.43487779  0.96541183  0.28380790    -0.38300
N802        N  0.36749395  0.97863106  0.28255328    -0.40000
C803        C  0.60662549  0.97448696  0.22597523    -0.04900
C804        C  0.61788705  0.97252991  0.24706359     0.09200
C805        C  0.60522554  0.97314906  0.26756340    -0.02300
C806        C  0.58120780  0.97582421  0.26710017    -0.00600
C807        C  0.56957846  0.97911406  0.24592444    -0.04200
C808        C  0.58273441  0.97814045  0.22526008     0.02800
C809        C  0.64330229  0.97002173  0.24786707     0.09700
C810        C  0.61714097  0.97126638  0.28926919     0.35600
C811        C  0.57225337  0.98120136  0.20297293     0.39000
C812        C  0.65724167  0.98968272  0.24804442    -0.04600
C813        C  0.68103316  0.98745282  0.25133403     0.02600
C814        C  0.69082895  0.96558845  0.25460859    -0.04200
C815        C  0.67709405  0.94586794  0.25316664    -0.00400
C816        C  0.65332614  0.94808109  0.24972219    -0.03000
C817        C  0.64695722  0.01218946  0.24545134     0.36300
C818        C  0.68735698  0.92337828  0.25597411     0.39900
C819        C  0.69542985  0.00761852  0.25157194     0.39000
C820        C  0.63904589  0.92787633  0.24862137     0.36000
C821        C  0.61982224  0.97280570  0.20492329     0.36700
C822        C  0.56885631  0.97469949  0.28866058     0.39900
N823        N  0.70692967  0.02369834  0.25160856    -0.38200
N824        N  0.63868829  0.03011591  0.24336899    -0.39700
N825        N  0.69562702  0.90547408  0.25822405    -0.37500
N826        N  0.62760180  0.91178652  0.24770509    -0.39900
N827        N  0.62675117  0.96986659  0.30650230    -0.39700
N828        N  0.55923459  0.97366869  0.30597800    -0.37300
N829        N  0.56410191  0.98362878  0.18510284    -0.38300
N830        N  0.63035254  0.97135202  0.18816922    -0.40000
C831        C  0.49415394  0.26644896  0.10014880    -0.04900
C832        C  0.51115342  0.25159847  0.10883196     0.09200
C833        C  0.52313733  0.23690988  0.09377928    -0.02300
C834        C  0.51838836  0.23724288  0.07011683    -0.00600
C835        C  0.50137626  0.25213426  0.06129869    -0.04200
C836        C  0.48914837  0.26662418  0.07651152     0.02800
C837        C  0.51529744  0.25005690  0.13408518     0.09700
C838        C  0.54012680  0.22112845  0.10279637     0.35600
C839        C  0.47060872  0.28090224  0.06805978     0.39000
C840        C  0.50168217  0.23541964  0.14750123    -0.04600
C841        C  0.50627431  0.23261272  0.17099017     0.02600
C842        C  0.52532190  0.24360402  0.18119892    -0.04200
C843        C  0.53827158  0.25919936  0.16788930    -0.00400
C844        C  0.53321921  0.26239087  0.14442238    -0.03000
C845        C  0.48342089  0.22250346  0.13682965     0.36300
C846        C  0.55733045  0.27139869  0.17786858     0.39900
C847        C  0.49100132  0.21855329  0.18461079     0.39000
C848        C  0.54693120  0.27780048  0.13063717     0.36000
C849        C  0.48153633  0.28123639  0.11569429     0.36700
C850        C  0.53141606  0.22250306  0.05488061     0.39900
N851        N  0.47860534  0.20735907  0.19523729    -0.38200
N852        N  0.46901109  0.21209239  0.12821502    -0.39700
N853        N  0.57250538  0.28143427  0.18555884    -0.37500
N854        N  0.55789189  0.29005464  0.11960566    -0.39900
N855        N  0.55360123  0.20850110  0.11005737    -0.39700
N856        N  0.54190865  0.21064382  0.04289994    -0.37300
N857        N  0.45571589  0.29215710  0.06132339    -0.38300
N858        N  0.47148429  0.29298839  0.12815940    -0.40000
C859        C  0.33323143  0.24399053  0.01217608    -0.04900
C860        C  0.34863043  0.25993765  0.02157476     0.09200
C861        C  0.34049017  0.27707088  0.03652616    -0.02300
C862        C  0.31699695  0.27846956  0.04191707    -0.00600
C863        C  0.30134874  0.26283923  0.03214585    -0.04200
C864        C  0.30961964  0.24547171  0.01735382     0.02800
C865        C  0.37357629  0.25888953  0.01584582     0.09700
C866        C  0.35639765  0.29343065  0.04619465     0.35600
C867        C  0.29375980  0.22981281  0.00656702     0.39000
C868        C  0.38233961  0.27180971  0.99742505    -0.04600
C869        C  0.40610710  0.27193896  0.99288174     0.02600
C870        C  0.42123105  0.25920440  0.00686133    -0.04200
C871        C  0.41235894  0.24646019  0.02545646    -0.00400
C872        C  0.38859863  0.24609333  0.02973038    -0.03000
C873        C  0.36676828  0.28479755  0.98306253     0.36300
C874        C  0.42776600  0.23428525  0.04070423     0.39900
C875        C  0.41478698  0.28456258  0.97337411     0.39000
C876        C  0.37951292  0.23248853  0.04840263     0.36000
C877        C  0.34170930  0.22630672  0.99688634     0.36700
C878        C  0.30913286  0.29587726  0.05785160     0.39900
N879        N  0.42147185  0.29467384  0.95771755    -0.38200
N880        N  0.35425811  0.29508531  0.97163568    -0.39700
N881        N  0.44010870  0.22469100  0.05288585    -0.37500
N882        N  0.37221182  0.22153535  0.06319998    -0.39900
N883        N  0.36914280  0.30646424  0.05380750    -0.39700
N884        N  0.30318635  0.30987297  0.07059186    -0.37300
N885        N  0.28106160  0.21738894  0.99792244    -0.38300
N886        N  0.34850195  0.21219971  0.98468737    -0.40000
C887        C  0.59233362  0.22345403  0.98350855    -0.04900
C888        C  0.60579146  0.24273589  0.97863384     0.09200
C889        C  0.59511086  0.26392253  0.97411266    -0.02300
C890        C  0.57101810  0.26608548  0.97521847    -0.00600
C891        C  0.55722554  0.24705548  0.98155337    -0.04200
C892        C  0.56824370  0.22540920  0.98478444     0.02800
C893        C  0.63138173  0.24093645  0.97881484     0.09700
C894        C  0.60910587  0.28367153  0.96864491     0.35600
C895        C  0.55523393  0.20481461  0.98945958     0.39000
C896        C  0.64367744  0.23793224  0.95818765    -0.04600
C897        C  0.66784544  0.23857209  0.95820343     0.02600
C898        C  0.67975604  0.24247041  0.97881555    -0.04200
C899        C  0.66749735  0.24390429  0.99961581    -0.00400
C900        C  0.64335746  0.24320058  0.99962001    -0.03000
C901        C  0.63138197  0.23524873  0.93685110     0.36300
C902        C  0.67979041  0.24654728  0.02096387     0.39900
C903        C  0.68042779  0.23649659  0.93685340     0.39000
C904        C  0.63073928  0.24585442  0.02088505     0.36000
C905        C  0.60346535  0.20154740  0.98756794     0.36700
C906        C  0.56070977  0.28788248  0.96905581     0.39900
N907        N  0.69054397  0.23478984  0.91986970    -0.38200
N908        N  0.62153010  0.23323378  0.91982747    -0.39700
N909        N  0.68962080  0.24850697  0.03800647    -0.37500
N910        N  0.62057333  0.24802886  0.03778626    -0.39900
N911        N  0.62033218  0.29937377  0.96432710    -0.39700
N912        N  0.55261556  0.30528728  0.96400144    -0.37300
N913        N  0.54503588  0.18823861  0.99302187    -0.38300
N914        N  0.61236721  0.18411311  0.99085603    -0.40000
C915        C  0.27573606  0.58787071  0.28918631    -0.04900
C916        C  0.29523313  0.57376361  0.29209605     0.09200
C917        C  0.29734229  0.55349807  0.27907550    -0.02300
C918        C  0.28015473  0.54742187  0.26321588    -0.00600
C919        C  0.26094183  0.56184436  0.25982957    -0.04200
C920        C  0.25887055  0.58215027  0.27285087     0.02800
C921        C  0.31397699  0.58067592  0.30827309     0.09700
C922        C  0.31726210  0.53889554  0.28208520     0.35600
C923        C  0.23980858  0.59762161  0.26884752     0.39000
C924        C  0.31384457  0.57315118  0.33120336    -0.04600
C925        C  0.33129087  0.58006522  0.34642493     0.02600
C926        C  0.34938280  0.59430728  0.33875571    -0.04200
C927        C  0.34933183  0.60189750  0.31575151    -0.00400
C928        C  0.33168588  0.59518007  0.30067630    -0.03000
C929        C  0.29518111  0.55901464  0.33935881     0.36300
C930        C  0.36724031  0.61671147  0.30728249     0.39900
C931        C  0.32905415  0.57477054  0.37058124     0.39000
C932        C  0.33145518  0.60353408  0.27729751     0.36000
C933        C  0.27301744  0.60824631  0.30312811     0.36700
C934        C  0.28194798  0.52598698  0.25082074     0.39900
N935        N  0.32690732  0.57105621  0.38991719    -0.38200
N936        N  0.28024303  0.54780764  0.34590796    -0.39700
N937        N  0.38106111  0.62862864  0.29967259    -0.37500
N938        N  0.33114365  0.61026392  0.25867746    -0.39900
N939        N  0.33320356  0.52731114  0.28454901    -0.39700
N940        N  0.28332707  0.50879020  0.24106575    -0.37300
N941        N  0.22476376  0.61014753  0.26551628    -0.38300
N942        N  0.27076212  0.62441191  0.31437806    -0.40000
C943        C  0.09534146  0.53222195  0.23540404    -0.04900
C944        C  0.10971757  0.52012351  0.25060850     0.09200
C945        C  0.10021021  0.50357209  0.26536518    -0.02300
C946        C  0.07651643  0.49876786  0.26460048    -0.00600
C947        C  0.06214732  0.51046705  0.24894828    -0.04200
C948        C  0.07166982  0.52747856  0.23459303     0.02800
C949        C  0.13514327  0.52357560  0.24953632     0.09700
C950        C  0.11500553  0.49105370  0.28088346     0.35600
C951        C  0.05705747  0.54047430  0.21925570     0.39000
C952        C  0.14595753  0.54002214  0.26343326    -0.04600
C953        C  0.16944590  0.54513019  0.26019017     0.02600
C954        C  0.18223142  0.53383123  0.24283988    -0.04200
C955        C  0.17160644  0.51595989  0.23030134    -0.00400
C956        C  0.14821444  0.51105317  0.23353967    -0.03000
C957        C  0.13266099  0.55209441  0.28065625     0.36300
C958        C  0.18464422  0.50247268  0.21387668     0.39900
C959        C  0.17995986  0.56263531  0.27416365     0.39000
C960        C  0.13733040  0.49341407  0.21993627     0.36000
C961        C  0.10508990  0.54931276  0.22026816     0.36700
C962        C  0.06717476  0.48102983  0.27923142     0.39900
N963        N  0.18814123  0.57652134  0.28560126    -0.38200
N964        N  0.12201014  0.56165674  0.29442621    -0.39700
N965        N  0.19499477  0.49182648  0.20067837    -0.37500
N966        N  0.12861239  0.47936957  0.20910536    -0.39900
N967        N  0.12686401  0.48106892  0.29322723    -0.39700
N968        N  0.05970187  0.46687545  0.29088808    -0.37300
N969        N  0.04537845  0.55084804  0.20705496    -0.38300
N970        N  0.11295347  0.56289567  0.20819737    -0.40000
C971        C  0.99781586  0.38912112  0.26252996    -0.04900
C972        C  0.01702976  0.37964020  0.25117462     0.09200
C973        C  0.03256353  0.39414991  0.23975944    -0.02300
C974        C  0.02870882  0.41798637  0.23930941    -0.00600
C975        C  0.00918978  0.42747765  0.25018374    -0.04200
C976        C  0.99380698  0.41295879  0.26193147     0.02800
C977        C  0.02111729  0.35433435  0.25151940     0.09700
C978        C  0.05257420  0.38447396  0.22851736     0.35600
C979        C  0.97332456  0.42236398  0.27257650     0.39000
C980        C  0.00836488  0.33974733  0.23714637    -0.04600
C981        C  0.01148157  0.31578864  0.23832735     0.02600
C982        C  0.02766084  0.30638406  0.25359786    -0.04200
C983        C  0.04109590  0.32107606  0.26724764    -0.00400
C984        C  0.03764659  0.34494204  0.26640124    -0.03000
C985        C  0.99172528  0.34943438  0.22147927     0.36300
C986        C  0.05845708  0.31157637  0.28228510     0.39900
C987        C  0.99716259  0.30078117  0.22481018     0.39000
C988        C  0.05068291  0.35985100  0.28128312     0.36000
C989        C  0.98221830  0.37428875  0.27489064     0.36700
C990        C  0.04515594  0.43281545  0.22808970     0.39900
N991        N  0.98568960  0.28874202  0.21414443    -0.38200
N992        N  0.97844030  0.35721800  0.20901444    -0.39700
N993        N  0.07230727  0.30394569  0.29422341    -0.37500
N994        N  0.06104446  0.37178162  0.29314400    -0.39900
N995        N  0.06858168  0.37668796  0.21968365    -0.39700
N996        N  0.05825988  0.44469462  0.21919741    -0.37300
N997        N  0.95691260  0.42982706  0.28094564    -0.38300
N998        N  0.96980877  0.36243992  0.28476962    -0.40000
C999        C  0.98294529  0.60146738  0.24943449    -0.04900
C1000       C  0.96529037  0.60803572  0.23432189     0.09200
C1001       C  0.95498268  0.59153231  0.22017688    -0.02300
C1002       C  0.96158704  0.56832453  0.22181185    -0.00600
C1003       C  0.97881893  0.56156138  0.23744940    -0.04200
C1004       C  0.98977032  0.57832733  0.25094395     0.02800
C1005       C  0.95612286  0.63195496  0.23509765     0.09700
C1006       C  0.93718992  0.59845814  0.20433005     0.35600
C1007       C  0.00826461  0.57185345  0.26620542     0.39000
C1008       C  0.96661994  0.64956939  0.22237898    -0.04600
C1009       C  0.96024265  0.67262657  0.22617397     0.02600
C1010       C  0.94305154  0.67799655  0.24243629    -0.04200
C1011       C  0.93108659  0.66012192  0.25343679    -0.00400
C1012       C  0.93780912  0.63719607  0.25001609    -0.03000
C1013       C  0.98451708  0.64395159  0.20603483     0.36300
C1014       C  0.91207501  0.66539178  0.26863493     0.39900
C1015       C  0.97245016  0.69081058  0.21453624     0.39000
C1016       C  0.92660877  0.61899635  0.26264262     0.36000
C1017       C  0.99372886  0.61854118  0.26380187     0.36700
C1018       C  0.94971504  0.55129751  0.20828310     0.39900
N1019       N  0.98220022  0.70534737  0.20529365    -0.38200
N1020       N  0.99873028  0.63942393  0.19292113    -0.39700
N1021       N  0.89683553  0.66959046  0.28066165    -0.37500
N1022       N  0.91781790  0.60439771  0.27271341    -0.39900
N1023       N  0.92302895  0.60406149  0.19167525    -0.39700
N1024       N  0.94018256  0.53769523  0.19757506    -0.37300
N1025       N  0.02301578  0.56665668  0.27835644    -0.38300
N1026       N  0.00228170  0.63220458  0.27523911    -0.40000
C1027       C  0.24105322  0.50904061  0.10132665    -0.04900
C1028       C  0.23975481  0.53256060  0.10695529     0.09200
C1029       C  0.23824614  0.54893035  0.08921506    -0.02300
C1030       C  0.23747610  0.54180831  0.06613587    -0.00600
C1031       C  0.23996225  0.51840718  0.06052377    -0.04200
C1032       C  0.24186011  0.50204881  0.07819404     0.02800
C1033       C  0.23850308  0.53988822  0.13160165     0.09700
C1034       C  0.23759835  0.57313130  0.09474821     0.35600
C1035       C  0.24413453  0.47795566  0.07253917     0.39000
C1036       C  0.25799594  0.53868263  0.14579309    -0.04600
C1037       C  0.25605915  0.54283365  0.16961802     0.02600
C1038       C  0.23464575  0.54921313  0.17935373    -0.04200
C1039       C  0.21572561  0.55272956  0.16441230    -0.00400
C1040       C  0.21747586  0.54728997  0.14095887    -0.03000
C1041       C  0.28003865  0.53284926  0.13579717     0.36300
C1042       C  0.19424761  0.56213270  0.17293214     0.39900
C1043       C  0.27600903  0.53950175  0.18393773     0.39000
C1044       C  0.19732110  0.54856890  0.12651243     0.36000
C1045       C  0.24088910  0.49200896  0.11938007     0.36700
C1046       C  0.23370487  0.55856197  0.04821859     0.39900
N1047       N  0.29213109  0.53679704  0.19509932    -0.38200
N1048       N  0.29761484  0.52830877  0.12773370    -0.39700
N1049       N  0.17708675  0.56958747  0.17964066    -0.37500
N1050       N  0.18127982  0.54951963  0.11496661    -0.39900
N1051       N  0.23716887  0.59243986  0.09918181    -0.39700
N1052       N  0.23021853  0.57201076  0.03409882    -0.37300
N1053       N  0.24600952  0.45874582  0.06800932    -0.38300
N1054       N  0.24056601  0.47846344  0.13382713    -0.40000
C1055       C  0.21501741  0.40151303  0.02719965    -0.04900
C1056       C  0.23095760  0.38558135  0.01832466     0.09200
C1057       C  0.24884426  0.39323811  0.00399426    -0.02300
C1058       C  0.25090295  0.41667977  0.99867465    -0.00600
C1059       C  0.23571978  0.43293207  0.00853303    -0.04200
C1060       C  0.21751215  0.42513542  0.02259508     0.02800
C1061       C  0.22972613  0.36077254  0.02474035     0.09700
C1062       C  0.26543950  0.37694156  0.99501805     0.35600
C1063       C  0.20172421  0.44135071  0.03300425     0.39000
C1064       C  0.22223296  0.34436724  0.00868935    -0.04600
C1065       C  0.22518141  0.32077475  0.01317955     0.02600
C1066       C  0.23481478  0.31355380  0.03408304    -0.04200
C1067       C  0.24000950  0.32988510  0.05104092    -0.00400
C1068       C  0.23807943  0.35344838  0.04618183    -0.03000
C1069       C  0.21247826  0.35186225  0.98715737     0.36300
C1070       C  0.24794087  0.32234825  0.07330899     0.39900
C1071       C  0.21951457  0.30401553  0.99583198     0.39000
C1072       C  0.24611827  0.37013742  0.06264156     0.36000
C1073       C  0.19611955  0.39350183  0.04118865     0.36700
C1074       C  0.26815842  0.42386666  0.98227416     0.39900
N1075       N  0.21504749  0.29069442  0.98190900    -0.38200
N1076       N  0.20468852  0.35791179  0.96999536    -0.39700
N1077       N  0.25400683  0.31627074  0.09114496    -0.37500
N1078       N  0.25269694  0.38347620  0.07566842    -0.39900
N1079       N  0.27867712  0.36391358  0.98793809    -0.39700
N1080       N  0.28178246  0.42959381  0.96905914    -0.37300
N1081       N  0.18911458  0.45423913  0.04137193    -0.38300
N1082       N  0.18103953  0.38701611  0.05229360    -0.40000
C1083       C  0.23888279  0.65359870  0.96722416    -0.04900
C1084       C  0.25731699  0.63871830  0.96216985     0.09200
C1085       C  0.27725889  0.64743439  0.95184707    -0.02300
C1086       C  0.27929686  0.67108083  0.94756483    -0.00600
C1087       C  0.26132380  0.68642934  0.95372914    -0.04200
C1088       C  0.24069428  0.67731751  0.96274704     0.02800
C1089       C  0.25590171  0.61371997  0.96763070     0.09700
C1090       C  0.29580406  0.63191927  0.94572232     0.35600
C1091       C  0.22139949  0.69219326  0.96793233     0.39000
C1092       C  0.24455431  0.59870514  0.95261949    -0.04600
C1093       C  0.24360020  0.57508880  0.95754280     0.02600
C1094       C  0.25430726  0.56626935  0.97738495    -0.04200
C1095       C  0.26684065  0.58116245  0.99167114    -0.00400
C1096       C  0.26704366  0.60489673  0.98716098    -0.03000
C1097       C  0.23402100  0.60761411  0.93199589     0.36300
C1098       C  0.27924189  0.57221673  0.01122934     0.39900
C1099       C  0.23246185  0.55971011  0.94161030     0.39000
C1100       C  0.27832094  0.62038331  0.00286413     0.36000
C1101       C  0.21824024  0.64448807  0.97758736     0.36700
C1102       C  0.29984590  0.67930005  0.93624361     0.39900
N1103       N  0.22373000  0.54741045  0.92883715    -0.38200
N1104       N  0.22565365  0.61478321  0.91554838    -0.39700
N1105       N  0.28924005  0.56508009  0.02676208    -0.37500
N1106       N  0.28716161  0.63278370  0.01545869    -0.39900
N1107       N  0.31054582  0.61949222  0.94088947    -0.39700
N1108       N  0.31633984  0.68561946  0.92725915    -0.37300
N1109       N  0.20586773  0.70397087  0.97184106    -0.38300
N1110       N  0.20180712  0.63718577  0.98589776    -0.40000
C1111       C  0.41230871  0.28815736  0.70584816    -0.04900
C1112       C  0.42812631  0.29446600  0.68867779     0.09200
C1113       C  0.45033241  0.28481398  0.68856265    -0.02300
C1114       C  0.45678399  0.26908836  0.70573541    -0.00600
C1115       C  0.44103858  0.26304785  0.72307297    -0.04200
C1116       C  0.41870285  0.27238384  0.72291797     0.02800
C1117       C  0.42114872  0.31136610  0.67077908     0.09700
C1118       C  0.46654197  0.29127024  0.67088915     0.35600
C1119       C  0.40211979  0.26530400  0.74003613     0.39000
C1120       C  0.42607078  0.33477178  0.67364131    -0.04600
C1121       C  0.41696430  0.35109492  0.65833387     0.02600
C1122       C  0.40344731  0.34403020  0.63955976    -0.04200
C1123       C  0.39916869  0.32042889  0.63639561    -0.00400
C1124       C  0.40794129  0.30419954  0.65200250    -0.03000
C1125       C  0.43983362  0.34208473  0.69290227     0.36300
C1126       C  0.38563601  0.31247675  0.61732866     0.39900
C1127       C  0.41918802  0.37522755  0.66364389     0.39000
C1128       C  0.40307955  0.28003239  0.64903789     0.36000
C1129       C  0.38947841  0.29808734  0.70602029     0.36700
C1130       C  0.47977668  0.25956900  0.70593053     0.39900
N1131       N  0.42037927  0.39434560  0.66866045    -0.38200
N1132       N  0.45090144  0.34783514  0.70823145    -0.39700
N1133       N  0.37496499  0.30496545  0.60251730    -0.37500
N1134       N  0.39919508  0.26075783  0.64676225    -0.39900
N1135       N  0.47947611  0.29649056  0.65680093    -0.39700
N1136       N  0.49811180  0.25194720  0.70614809    -0.37300
N1137       N  0.38891006  0.25952027  0.75363915    -0.38300
N1138       N  0.37127479  0.30602022  0.70614820    -0.40000
C1139       C  0.44211992  0.24794069  0.84407869    -0.04900
C1140       C  0.46318039  0.25672625  0.85186776     0.09200
C1141       C  0.48013392  0.26325772  0.83590183    -0.02300
C1142       C  0.47656644  0.25970209  0.81231952    -0.00600
C1143       C  0.45614238  0.24944025  0.80472861    -0.04200
C1144       C  0.43867652  0.24414571  0.82054222     0.02800
C1145       C  0.46831583  0.25689005  0.87691474     0.09700
C1146       C  0.50162066  0.27266044  0.84385468     0.35600
C1147       C  0.41745801  0.23412707  0.81258234     0.39000
C1148       C  0.47527417  0.23647406  0.88769154    -0.04600
C1149       C  0.47987545  0.23611839  0.91135730     0.02600
C1150       C  0.47723910  0.25632603  0.92479028    -0.04200
C1151       C  0.47070320  0.27701036  0.91352138    -0.00400
C1152       C  0.46626914  0.27715714  0.88975603    -0.03000
C1153       C  0.47781745  0.21570905  0.87420789     0.36300
C1154       C  0.46826458  0.29834846  0.92601886     0.39900
C1155       C  0.48799955  0.21484767  0.92138755     0.39000
C1156       C  0.45943755  0.29819167  0.87837846     0.36000
C1157       C  0.42435524  0.24204454  0.86041520     0.36700
C1158       C  0.49433349  0.26551668  0.79593742     0.39900
N1159       N  0.49445653  0.19781429  0.92924170    -0.38200
N1160       N  0.47977366  0.19920445  0.86340461    -0.39700
N1161       N  0.46639926  0.31553400  0.93573067    -0.37500
N1162       N  0.45405315  0.31493152  0.86921800    -0.39900
N1163       N  0.51875259  0.28017384  0.85023719    -0.39700
N1164       N  0.50845788  0.27014048  0.78281067    -0.37300
N1165       N  0.40057252  0.22612799  0.80613753    -0.38300
N1166       N  0.41020798  0.23734053  0.87348463    -0.40000
C1167       C  0.49276674  0.10399441  0.73352352    -0.04900
C1168       C  0.47479373  0.11312856  0.74690015     0.09200
C1169       C  0.46118028  0.09848337  0.76045412    -0.02300
C1170       C  0.46547453  0.07470748  0.76053848    -0.00600
C1171       C  0.48377840  0.06561064  0.74749668    -0.04200
C1172       C  0.49755886  0.08038478  0.73415506     0.02800
C1173       C  0.47110000  0.13840391  0.74769458     0.09700
C1174       C  0.44286898  0.10795876  0.77442203     0.35600
C1175       C  0.51728334  0.07148361  0.72175606     0.39000
C1176       C  0.45298851  0.14864233  0.73542416    -0.04600
C1177       C  0.44906476  0.17245186  0.73705209     0.02600
C1178       C  0.46353955  0.18615067  0.75072989    -0.04200
C1179       C  0.48243943  0.17589763  0.76197832    -0.00400
C1180       C  0.48596847  0.15209407  0.76072822    -0.03000
C1181       C  0.43833200  0.13455914  0.72127416     0.36300
C1182       C  0.49862750  0.18985662  0.77453070     0.39900
C1183       C  0.42960541  0.18255654  0.72536673     0.39000
C1184       C  0.50480960  0.14155907  0.77308121     0.36000
C1185       C  0.50638147  0.11899410  0.71916211     0.36700
C1186       C  0.45063299  0.05957113  0.77345272     0.39900
N1187       N  0.41407489  0.19056765  0.71600261    -0.38200
N1188       N  0.42670202  0.12325282  0.70999459    -0.39700
N1189       N  0.51154205  0.20099347  0.78450590    -0.37500
N1190       N  0.51982745  0.13308521  0.78285965    -0.39900
N1191       N  0.42826644  0.11555794  0.78555187    -0.39700
N1192       N  0.43876484  0.04744024  0.78365210    -0.37300
N1193       N  0.53308790  0.06441806  0.71199404    -0.38300
N1194       N  0.51718685  0.13098210  0.70769226    -0.40000
C1195       C  0.59358771  0.04406097  0.75916309    -0.04900
C1196       C  0.61063148  0.03157488  0.74737899     0.09200
C1197       C  0.60459169  0.01200836  0.73461604    -0.02300
C1198       C  0.58160485  0.00477156  0.73383682    -0.00600
C1199       C  0.56448868  0.01715524  0.74573352    -0.04200
C1200       C  0.57055031  0.03693575  0.75830714     0.02800
C1201       C  0.63507492  0.03899167  0.74804435     0.09700
C1202       C  0.62216012  0.99928328  0.72234906     0.35600
C1203       C  0.55301078  0.05038749  0.76983029     0.39000
C1204       C  0.65022460  0.02938116  0.76419816    -0.04600
C1205       C  0.67395840  0.03359468  0.76259070     0.02600
C1206       C  0.68261131  0.04732434  0.74466041    -0.04200
C1207       C  0.66715492  0.05821040  0.72946987    -0.00400
C1208       C  0.64344551  0.05418523  0.73131178    -0.03000
C1209       C  0.64137525  0.01455123  0.78201739     0.36300
C1210       C  0.67565366  0.07330414  0.71165937     0.39900
C1211       C  0.68948274  0.02260772  0.77853066     0.39000
C1212       C  0.62762278  0.06524335  0.71567829     0.36000
C1213       C  0.59983697  0.06426606  0.77209483     0.36700
C1214       C  0.57575204  0.98410370  0.72146851     0.39900
N1215       N  0.70176082  0.01379627  0.79133566    -0.38200
N1216       N  0.63425722  0.00274942  0.79623734    -0.39700
N1217       N  0.68244110  0.08524586  0.69738866    -0.37500
N1218       N  0.61493239  0.07414439  0.70333524    -0.39900
N1219       N  0.63623931  0.98920463  0.71259041    -0.39700
N1220       N  0.57120092  0.96754412  0.71165692    -0.37300
N1221       N  0.53904798  0.06118873  0.77897102    -0.38300
N1222       N  0.60489106  0.08037880  0.78239626    -0.40000
C1223       C  0.39789307  0.96127904  0.75932996    -0.04900
C1224       C  0.38309709  0.97415201  0.74523678     0.09200
C1225       C  0.39200149  0.99217877  0.73188379    -0.02300
C1226       C  0.41556563  0.99737734  0.73268960    -0.00600
C1227       C  0.43065203  0.98380198  0.74596122    -0.04200
C1228       C  0.42162143  0.96584083  0.75947584     0.02800
C1229       C  0.35816709  0.96832855  0.74397892     0.09700
C1230       C  0.37690859  0.00516331  0.71703225     0.35600
C1231       C  0.43672420  0.95151479  0.77302739     0.39000
C1232       C  0.34193074  0.98047769  0.75727303    -0.04600
C1233       C  0.31832527  0.97568810  0.75514395     0.02600
C1234       C  0.31087447  0.95869368  0.73970825    -0.04200
C1235       C  0.32725924  0.94580663  0.72726399    -0.00400
C1236       C  0.35078528  0.95078177  0.72919724    -0.03000
C1237       C  0.34956129  0.99828878  0.77270880     0.36300
C1238       C  0.31988366  0.92718911  0.71264414     0.39900
C1239       C  0.30167531  0.98887534  0.76813338     0.39000
C1240       C  0.36742121  0.93829856  0.71548525     0.36000
C1241       C  0.38861450  0.94320732  0.77357932     0.36700
C1242       C  0.42406805  0.01738913  0.72069787     0.39900
N1243       N  0.28836952  0.99937048  0.77851583    -0.38200
N1244       N  0.35573475  0.01252473  0.78496504    -0.39700
N1245       N  0.31398239  0.91222862  0.70113519    -0.37500
N1246       N  0.38073913  0.92845247  0.70450209    -0.39900
N1247       N  0.36489096  0.01541550  0.70506359    -0.39700
N1248       N  0.43087014  0.03348277  0.71138630    -0.37300
N1249       N  0.44864953  0.93997341  0.78386541    -0.38300
N1250       N  0.38113322  0.92885430  0.78497893    -0.40000
C1251       C  0.74022924  0.96344827  0.40251974    -0.04900
C1252       C  0.75744655  0.97269340  0.38835303     0.09200
C1253       C  0.77564303  0.98501545  0.39809917    -0.02300
C1254       C  0.77582080  0.98951991  0.42179015    -0.00600
C1255       C  0.75817390  0.98085636  0.43606187    -0.04200
C1256       C  0.74082032  0.96708672  0.42632916     0.02800
C1257       C  0.75539467  0.97085498  0.36298083     0.09700
C1258       C  0.79399973  0.99334978  0.38357010     0.35600
C1259       C  0.72373111  0.95622943  0.44074876     0.39000
C1260       C  0.74704626  0.98970761  0.35035515    -0.04600
C1261       C  0.74334768  0.98763123  0.32665786     0.02600
C1262       C  0.74770714  0.96658714  0.31552959    -0.04200
C1263       C  0.75571308  0.94763274  0.32825593    -0.00400
C1264       C  0.76023173  0.94998235  0.35180263    -0.03000
C1265       C  0.74183274  0.01111548  0.36191259     0.36300
C1266       C  0.75722168  0.92521371  0.31769390     0.39900
C1267       C  0.73460481  0.00704959  0.31383279     0.39000
C1268       C  0.76956166  0.93086770  0.36465145     0.36000
C1269       C  0.72157552  0.95059955  0.39246442     0.36700
C1270       C  0.79360050  0.00405130  0.43108193     0.39900
N1271       N  0.72751644  0.02254923  0.30370395    -0.38200
N1272       N  0.73775207  0.02815040  0.37122179    -0.39700
N1273       N  0.75791853  0.90716481  0.30954245    -0.37500
N1274       N  0.77712065  0.91566703  0.37489552    -0.39900
N1275       N  0.80865650  0.99989134  0.37194437    -0.39700
N1276       N  0.80777201  0.01569524  0.43842801    -0.37300
N1277       N  0.71014527  0.94750995  0.45223780    -0.38300
N1278       N  0.70672474  0.94036659  0.38439816    -0.40000
C1279       C  0.73619655  0.03241217  0.60296545    -0.04900
C1280       C  0.75245389  0.02251007  0.61781344     0.09200
C1281       C  0.76951142  0.00779210  0.60899678    -0.02300
C1282       C  0.77014525  0.00265463  0.58543807    -0.00600
C1283       C  0.75393605  0.01267153  0.57036208    -0.04200
C1284       C  0.73706029  0.02776865  0.57930562     0.02800
C1285       C  0.75100044  0.02694567  0.64295283     0.09700
C1286       C  0.78626207  0.99770112  0.62432196     0.35600
C1287       C  0.72083046  0.03903616  0.56422833     0.39000
C1288       C  0.74102421  0.01048426  0.65749159    -0.04600
C1289       C  0.73805039  0.01525379  0.68093113     0.02600
C1290       C  0.74487681  0.03661276  0.68996151    -0.04200
C1291       C  0.75575941  0.05269184  0.67557369    -0.00400
C1292       C  0.75874209  0.04787864  0.65208831    -0.03000
C1293       C  0.73306068  0.98895214  0.64810959     0.36300
C1294       C  0.76276426  0.07468718  0.68455740     0.39900
C1295       C  0.72775128  0.99820053  0.69576152     0.39000
C1296       C  0.76899977  0.06477953  0.63708461     0.36000
C1297       C  0.71835139  0.04718615  0.61217474     0.36700
C1298       C  0.78698082  0.98628549  0.57703996     0.39900
N1299       N  0.71953219  0.98462019  0.70759674    -0.38200
N1300       N  0.72671861  0.97181122  0.64055402    -0.39700
N1301       N  0.76844458  0.09230333  0.69151452    -0.37500
N1302       N  0.77701800  0.07829202  0.62503697    -0.39900
N1303       N  0.79957152  0.98962661  0.63657610    -0.39700
N1304       N  0.80039209  0.97321212  0.57037010    -0.37300
N1305       N  0.70786433  0.04803345  0.55223970    -0.38300
N1306       N  0.70413292  0.05893689  0.61958336    -0.40000
C1307       C  0.65394366  0.30588236  0.43051647    -0.04900
C1308       C  0.67725624  0.31208727  0.43082339     0.09200
C1309       C  0.68371114  0.33430280  0.42392903    -0.02300
C1310       C  0.66718166  0.34947946  0.41489421    -0.00600
C1311       C  0.64441017  0.34210156  0.41186781    -0.04200
C1312       C  0.63747314  0.32103935  0.42137021     0.02800
C1313       C  0.69512438  0.29484001  0.43727315     0.09700
C1314       C  0.70748726  0.34118980  0.42538439     0.35600
C1315       C  0.61350082  0.31471561  0.42140905     0.39000
C1316       C  0.70261340  0.27854764  0.42099678    -0.04600
C1317       C  0.71976712  0.26249041  0.42674368     0.02600
C1318       C  0.72971636  0.26281014  0.44872377    -0.04200
C1319       C  0.72204892  0.27894927  0.46508565    -0.00400
C1320       C  0.70467133  0.29482583  0.45940872    -0.03000
C1321       C  0.69274448  0.27846807  0.39824454     0.36300
C1322       C  0.73162442  0.27880902  0.48795208     0.39900
C1323       C  0.72759973  0.24599595  0.40983960     0.39000
C1324       C  0.69636522  0.31100128  0.47636603     0.36000
C1325       C  0.64706091  0.28365525  0.43910500     0.36700
C1326       C  0.67369636  0.37247581  0.40821517     0.39900
N1327       N  0.73387139  0.23280728  0.39640102    -0.38200
N1328       N  0.68482461  0.27841290  0.38011987    -0.39700
N1329       N  0.73926085  0.27862857  0.50619848    -0.37500
N1330       N  0.68963943  0.32389818  0.48986790    -0.39900
N1331       N  0.72647865  0.34662271  0.42659721    -0.39700
N1332       N  0.67892027  0.39077488  0.40276259    -0.37300
N1333       N  0.59449949  0.30919198  0.42136499    -0.38300
N1334       N  0.64161598  0.26589999  0.44595257    -0.40000
C1335       C  0.76790949  0.10329350  0.49565805    -0.04900
C1336       C  0.75623801  0.11094594  0.47592402     0.09200
C1337       C  0.74562927  0.09493527  0.46138107    -0.02300
C1338       C  0.74684338  0.07137272  0.46640924    -0.00600
C1339       C  0.75791876  0.06376811  0.48649232    -0.04200
C1340       C  0.76856318  0.07976467  0.50105277     0.02800
C1341       C  0.75554418  0.13588150  0.47018203     0.09700
C1342       C  0.73323812  0.10280327  0.44137527     0.35600
C1343       C  0.77953881  0.07208216  0.52195361     0.39000
C1344       C  0.76991161  0.14457578  0.45280614    -0.04600
C1345       C  0.77028289  0.16824962  0.44826745     0.02600
C1346       C  0.75648540  0.18339311  0.46124507    -0.04200
C1347       C  0.74115110  0.17457007  0.47772119    -0.00400
C1348       C  0.74076224  0.15084801  0.48224969    -0.03000
C1349       C  0.78477632  0.12919440  0.44003129     0.36300
C1350       C  0.72650808  0.18997060  0.49070976     0.39900
C1351       C  0.78482430  0.17708345  0.43014808     0.39000
C1352       C  0.72562271  0.14185072  0.49976094     0.36000
C1353       C  0.77913103  0.11968078  0.51046407     0.36700
C1354       C  0.73742154  0.05487130  0.45048228     0.39900
N1355       N  0.79630726  0.18415665  0.41562539    -0.38200
N1356       N  0.79657452  0.11688001  0.42983043    -0.39700
N1357       N  0.71477559  0.20228972  0.50098179    -0.37500
N1358       N  0.71365570  0.13463884  0.51381437    -0.39900
N1359       N  0.72331990  0.10917408  0.42547208    -0.39700
N1360       N  0.73013795  0.04168079  0.43768171    -0.37300
N1361       N  0.78821319  0.06587887  0.53863420    -0.38300
N1362       N  0.78803404  0.13276538  0.52230096    -0.40000
C1363       C  0.84332890  0.24171205  0.49530509    -0.04900
C1364       C  0.85703011  0.25278744  0.47880296     0.09200
C1365       C  0.84683581  0.26191591  0.45889327    -0.02300
C1366       C  0.82328334  0.25855644  0.45473829    -0.00600
C1367       C  0.80983585  0.24637269  0.47071027    -0.04200
C1368       C  0.81976152  0.23874519  0.49139315     0.02800
C1369       C  0.88246640  0.25294610  0.48158522     0.09700
C1370       C  0.86083683  0.27397870  0.44232307     0.35600
C1371       C  0.80573546  0.22747278  0.50853793     0.39000
C1372       C  0.89598649  0.23672301  0.46971426    -0.04600
C1373       C  0.91984783  0.23579869  0.47316096     0.02600
C1374       C  0.93029034  0.25059215  0.48915835    -0.04200
C1375       C  0.91664116  0.26680106  0.50111902    -0.00400
C1376       C  0.89288024  0.26822403  0.49699717    -0.03000
C1377       C  0.88520522  0.22072469  0.45415230     0.36300
C1378       C  0.92677885  0.28137807  0.51841575     0.39900
C1379       C  0.93366836  0.22005900  0.45966369     0.39000
C1380       C  0.87903611  0.28530924  0.50869527     0.36000
C1381       C  0.85373159  0.23240705  0.51583741     0.36700
C1382       C  0.81330142  0.26625836  0.43337423     0.39900
N1383       N  0.94468436  0.20757688  0.44881654    -0.38200
N1384       N  0.87652172  0.20798271  0.44179071    -0.39700
N1385       N  0.93483742  0.29292194  0.53229346    -0.37500
N1386       N  0.86796557  0.29897111  0.51794992    -0.39900
N1387       N  0.87207130  0.28357108  0.42912577    -0.39700
N1388       N  0.80535016  0.27231451  0.41628652    -0.37300
N1389       N  0.79449028  0.21850508  0.52216348    -0.38300
N1390       N  0.86208754  0.22495996  0.53216882    -0.40000
C1391       C  0.27652742  0.41235936  0.69814821    -0.04900
C1392       C  0.29644634  0.42564646  0.69523257     0.09200
C1393       C  0.29907016  0.44589574  0.70811261    -0.02300
C1394       C  0.28216428  0.45251397  0.72422110    -0.00600
C1395       C  0.26259479  0.43871210  0.72788441    -0.04200
C1396       C  0.25976998  0.41871104  0.71447745     0.02800
C1397       C  0.31475888  0.41795671  0.67875586     0.09700
C1398       C  0.31923862  0.45991422  0.70478155     0.35600
C1399       C  0.24002830  0.40410651  0.71791038     0.39000
C1400       C  0.31622538  0.42766628  0.65675724    -0.04600
C1401       C  0.33241914  0.41932681  0.64071691     0.02600
C1402       C  0.34774562  0.40125677  0.64658892    -0.04200
C1403       C  0.34609547  0.39160071  0.66883912    -0.00400
C1404       C  0.32979152  0.40000465  0.68476246    -0.03000
C1405       C  0.30052446  0.44591666  0.65042975     0.36300
C1406       C  0.36069074  0.37276852  0.67577027     0.39900
C1407       C  0.33205474  0.42854773  0.61769369     0.39000
C1408       C  0.32819639  0.38995474  0.70743801     0.36000
C1409       C  0.27334954  0.39202348  0.68427729     0.36700
C1410       C  0.28460338  0.47397594  0.73645240     0.39900
N1411       N  0.33151995  0.43612039  0.59941401    -0.38200
N1412       N  0.28801424  0.46049672  0.64542876    -0.39700
N1413       N  0.37146546  0.35745054  0.68229312    -0.37500
N1414       N  0.32680718  0.38193172  0.72549259    -0.39900
N1415       N  0.33528908  0.47115345  0.70207703    -0.39700
N1416       N  0.28645942  0.49113507  0.74616013    -0.37300
N1417       N  0.22429359  0.39241823  0.72057114    -0.38300
N1418       N  0.27086247  0.37583019  0.67316973    -0.40000
C1419       C  0.26486167  0.45744759  0.84276215    -0.04900
C1420       C  0.25113131  0.47391595  0.85404240     0.09200
C1421       C  0.23490935  0.48664824  0.84150132    -0.02300
C1422       C  0.23163525  0.48219185  0.81805177    -0.00600
C1423       C  0.24390818  0.46422087  0.80709523    -0.04200
C1424       C  0.26112244  0.45238493  0.81941904     0.02800
C1425       C  0.25245042  0.47678886  0.87946584     0.09700
C1426       C  0.22096101  0.50381368  0.85299047     0.35600
C1427       C  0.27413794  0.43413157  0.80860091     0.39000
C1428       C  0.26484688  0.49506422  0.88909088    -0.04600
C1429       C  0.26451923  0.49865258  0.91298328     0.02600
C1430       C  0.25136898  0.48425341  0.92731057    -0.04200
C1431       C  0.23960066  0.46551685  0.91773081    -0.00400
C1432       C  0.24015834  0.46179514  0.89388357    -0.03000
C1433       C  0.27746232  0.51047823  0.87430118     0.36300
C1434       C  0.22733929  0.44976417  0.93248674     0.39900
C1435       C  0.27714344  0.51760936  0.92273537     0.39000
C1436       C  0.22769496  0.44278869  0.88403008     0.36000
C1437       C  0.28241970  0.44529982  0.85544746     0.36700
C1438       C  0.21558385  0.49625307  0.80523836     0.39900
N1439       N  0.28727255  0.53266889  0.93055714    -0.38200
N1440       N  0.28743067  0.52283604  0.86247062    -0.39700
N1441       N  0.21768304  0.43712067  0.94427696    -0.37500
N1442       N  0.21781654  0.42765123  0.87604336    -0.39900
N1443       N  0.20978896  0.51743470  0.86218465    -0.39700
N1444       N  0.20279720  0.50743933  0.79500487    -0.37300
N1445       N  0.28452210  0.41954273  0.79998851    -0.38300
N1446       N  0.29646960  0.43569709  0.86561327    -0.40000
C1447       C  0.09330717  0.45531254  0.74250876    -0.04900
C1448       C  0.11014896  0.46831607  0.75371096     0.09200
C1449       C  0.10373328  0.48816836  0.76601834    -0.02300
C1450       C  0.08053916  0.49508805  0.76696408    -0.00600
C1451       C  0.06365974  0.48211627  0.75564145    -0.04200
C1452       C  0.07010937  0.46200722  0.74368643     0.02800
C1453       C  0.13473879  0.46109731  0.75258520     0.09700
C1454       C  0.12111976  0.50161470  0.77742484     0.35600
C1455       C  0.05278341  0.44774913  0.73316859     0.39000
C1456       C  0.14968293  0.47134502  0.73660923    -0.04600
C1457       C  0.17331318  0.46616006  0.73698438     0.02600
C1458       C  0.18202786  0.45050799  0.75323472    -0.04200
C1459       C  0.16672949  0.43889955  0.76796589    -0.00400
C1460       C  0.14319088  0.44438598  0.76783589    -0.03000
C1461       C  0.14075994  0.48779165  0.72028775     0.36300
C1462       C  0.17528800  0.42137504  0.78337653     0.39900
C1463       C  0.18878143  0.47799209  0.72159776     0.39000
C1464       C  0.12776002  0.43345690  0.78393771     0.36000
C1465       C  0.09997565  0.43520562  0.72948035     0.36700
C1466       C  0.07417413  0.51595072  0.77891547     0.39900
N1467       N  0.20115793  0.48742394  0.70934053    -0.38200
N1468       N  0.13355099  0.50090852  0.70730124    -0.39700
N1469       N  0.18210560  0.40729761  0.79555382    -0.37500
N1470       N  0.11543314  0.42480236  0.79681018    -0.39900
N1471       N  0.13505984  0.51233774  0.78642410    -0.39700
N1472       N  0.06907939  0.53261964  0.78840176    -0.37300
N1473       N  0.03895869  0.43631972  0.72488733    -0.38300
N1474       N  0.10537809  0.41924259  0.71900690    -0.40000
C1475       C  0.98823217  0.39341911  0.77340539    -0.04900
C1476       C  0.97354279  0.38412471  0.75675841     0.09200
C1477       C  0.96297553  0.39866328  0.74064325    -0.02300
C1478       C  0.96710852  0.42240725  0.74107937    -0.00600
C1479       C  0.98248487  0.43177025  0.75724206    -0.04200
C1480       C  0.99292128  0.41710629  0.77353410     0.02800
C1481       C  0.97026134  0.35879790  0.75514838     0.09700
C1482       C  0.94825557  0.38903261  0.72319231     0.35600
C1483       C  0.00935476  0.42605345  0.78977007     0.39000
C1484       C  0.95007145  0.34856468  0.76356776    -0.04600
C1485       C  0.94612330  0.32499661  0.75999000     0.02600
C1486       C  0.96241295  0.31158216  0.74796418    -0.04200
C1487       C  0.98312249  0.32169733  0.74056442    -0.00400
C1488       C  0.98694114  0.34523444  0.74400763    -0.03000
C1489       C  0.93310140  0.36250701  0.77531834     0.36300
C1490       C  0.00061391  0.30785453  0.72943227     0.39900
C1491       C  0.92478741  0.31489570  0.76764354     0.39000
C1492       C  0.00775641  0.35573066  0.73544707     0.36000
C1493       C  0.99888460  0.37842181  0.79009984     0.36700
C1494       C  0.95511991  0.43717814  0.72507145     0.39900
N1495       N  0.90775942  0.30683747  0.77374966    -0.38200
N1496       N  0.91957131  0.37370313  0.78462716    -0.39700
N1497       N  0.01455832  0.29679356  0.72058176    -0.37500
N1498       N  0.02431284  0.36419776  0.72864228    -0.39900
N1499       N  0.93659777  0.38131539  0.70923091    -0.39700
N1500       N  0.94557272  0.44897883  0.71232475    -0.37300
N1501       N  0.02252107  0.43312999  0.80269590    -0.38300
N1502       N  0.00736878  0.36639265  0.80336677    -0.40000
C1503       C  0.00070272  0.60617366  0.76706049    -0.04900
C1504       C  0.01499750  0.61555483  0.75003170     0.09200
C1505       C  0.02622047  0.60091244  0.73436348    -0.02300
C1506       C  0.02353149  0.57695909  0.73594510    -0.00600
C1507       C  0.00890961  0.56741127  0.75280885    -0.04200
C1508       C  0.99736892  0.58226991  0.76827328     0.02800
C1509       C  0.01777763  0.64098021  0.74807810     0.09700
C1510       C  0.04026503  0.61061370  0.71630803     0.35600
C1511       C  0.98116323  0.57321832  0.78479337     0.39000
C1512       C  0.03745806  0.65174251  0.75685256    -0.04600
C1513       C  0.04087865  0.67544854  0.75347800     0.02600
C1514       C  0.02461903  0.68858092  0.74113808    -0.04200
C1515       C  0.00446624  0.67778817  0.73313399    -0.00400
C1516       C  0.00105927  0.65415699  0.73669721    -0.03000
C1517       C  0.05437466  0.63821870  0.76903408     0.36300
C1518       C  0.98697882  0.69084265  0.72127108     0.39900
C1519       C  0.06173028  0.68595664  0.76173596     0.39000
C1520       C  0.98040663  0.64324408  0.72838784     0.36000
C1521       C  0.98917927  0.62126478  0.78316147     0.36700
C1522       C  0.03630056  0.56221648  0.72044881     0.39900
N1523       N  0.07837377  0.69431971  0.76834652    -0.38200
N1524       N  0.06782170  0.62732832  0.77871687    -0.39700
N1525       N  0.97274959  0.70077728  0.71170164    -0.37500
N1526       N  0.96389265  0.63454363  0.72189265    -0.39900
N1527       N  0.05136170  0.61839477  0.70185220    -0.39700
N1528       N  0.04650919  0.55047121  0.70809866    -0.37300
N1529       N  0.96815160  0.56605277  0.79791582    -0.38300
N1530       N  0.98001058  0.63336952  0.79595933    -0.40000
C1531       C  0.97693722  0.72110861  0.33820139    -0.04900
C1532       C  0.96194105  0.73195570  0.35378800     0.09200
C1533       C  0.94179149  0.74265507  0.34566986    -0.02300
C1534       C  0.93630179  0.74187475  0.32213044    -0.00600
C1535       C  0.95097579  0.73035288  0.30661902    -0.04200
C1536       C  0.97153188  0.72032735  0.31474341     0.02800
C1537       C  0.96767956  0.73227137  0.37876400     0.09700
C1538       C  0.92668644  0.75433596  0.36163460     0.35600
C1539       C  0.98737779  0.70941888  0.29888209     0.39000
C1540       C  0.98305070  0.74867282  0.38729359    -0.04600
C1541       C  0.98932937  0.74847107  0.41058874     0.02600
C1542       C  0.97986182  0.73206280  0.42580809    -0.04200
C1543       C  0.96412486  0.71583166  0.41717802    -0.00400
C1544       C  0.95840773  0.71572245  0.39369047    -0.03000
C1545       C  0.99248441  0.76574794  0.37192968     0.36300
C1546       C  0.95285441  0.69993953  0.43255236     0.39900
C1547       C  0.00594062  0.76499892  0.41863873     0.39000
C1548       C  0.94305849  0.69846869  0.38475127     0.36000
C1549       C  0.99795901  0.71064704  0.34638782     0.36700
C1550       C  0.91516321  0.75216131  0.31406321     0.39900
N1551       N  0.01913988  0.77824845  0.42501309    -0.38200
N1552       N  0.99995176  0.77932455  0.35960287    -0.39700
N1553       N  0.94370802  0.68737300  0.44482387    -0.37500
N1554       N  0.93090684  0.68466325  0.37753461    -0.39900
N1555       N  0.91468057  0.76365797  0.37442795    -0.39700
N1556       N  0.89829436  0.76037692  0.30762245    -0.37300
N1557       N  0.99992168  0.70071098  0.28616775    -0.38300
N1558       N  0.01475884  0.70237386  0.35292249    -0.40000
C1559       C  0.00445327  0.76378695  0.59685361    -0.04900
C1560       C  0.01556395  0.74629726  0.60922861     0.09200
C1561       C  0.02230426  0.72603319  0.59779200    -0.02300
C1562       C  0.01857496  0.72353619  0.57403483    -0.00600
C1563       C  0.00658467  0.74068415  0.56163015    -0.04200
C1564       C  0.99905803  0.76064150  0.57354016     0.02800
C1565       C  0.01970739  0.74887091  0.63446776     0.09700
C1566       C  0.03303344  0.70760463  0.61059295     0.35600
C1567       C  0.98490270  0.77775682  0.56231779     0.39000
C1568       C  0.00117182  0.74821644  0.65007653    -0.04600
C1569       C  0.00530243  0.74860484  0.67383183     0.02600
C1570       C  0.02793939  0.74788064  0.68218255    -0.04200
C1571       C  0.04642398  0.74971549  0.66668837    -0.00400
C1572       C  0.04224876  0.75102172  0.64292562    -0.03000
C1573       C  0.97788741  0.74626025  0.64174669     0.36300
C1574       C  0.06975783  0.74898683  0.67500467     0.39900
C1575       C  0.98625871  0.74995605  0.68978002     0.39000
C1576       C  0.06114274  0.75418722  0.62708608     0.36000
C1577       C  0.99878406  0.78523345  0.60813825     0.36700
C1578       C  0.02786697  0.70356333  0.56245146     0.39900
N1579       N  0.97108978  0.75151221  0.70249380    -0.38200
N1580       N  0.95931406  0.74469869  0.63509126    -0.39700
N1581       N  0.08849089  0.74821418  0.68135486    -0.37500
N1582       N  0.07615101  0.75686075  0.61439488    -0.39900
N1583       N  0.04156864  0.69294182  0.62085806    -0.39700
N1584       N  0.03543662  0.68766337  0.55327227    -0.37300
N1585       N  0.97348649  0.79138718  0.55351098    -0.38300
N1586       N  0.99438281  0.80235432  0.61714241    -0.40000
C1587       C  0.28275416  0.68840717  0.44263620    -0.04900
C1588       C  0.29921889  0.69485480  0.42619908     0.09200
C1589       C  0.29873131  0.71723010  0.41716349    -0.02300
C1590       C  0.28138526  0.73285449  0.42386572    -0.00600
C1591       C  0.26455248  0.72641830  0.44023927    -0.04200
C1592       C  0.26571082  0.70413138  0.44986550     0.02800
C1593       C  0.31606511  0.67757393  0.41703410     0.09700
C1594       C  0.31592075  0.72396620  0.40051048     0.35600
C1595       C  0.24973588  0.69730558  0.46761231     0.39000
C1596       C  0.30982856  0.66349876  0.39859472    -0.04600
C1597       C  0.32589054  0.64823340  0.38866254     0.02600
C1598       C  0.34837236  0.64600376  0.39775915    -0.04200
C1599       C  0.35434213  0.66013789  0.41664511    -0.00400
C1600       C  0.33833016  0.67586976  0.42603852    -0.03000
C1601       C  0.28661316  0.66484103  0.38978297     0.36300
C1602       C  0.37731404  0.65970686  0.42588052     0.39900
C1603       C  0.31864505  0.63545559  0.36882210     0.39000
C1604       C  0.34479382  0.69060720  0.44490138     0.36000
C1605       C  0.28319763  0.66534999  0.45185111     0.36700
C1606       C  0.28039333  0.75513477  0.41291386     0.39900
N1607       N  0.31141718  0.62656454  0.35274049    -0.38200
N1608       N  0.26806423  0.66583523  0.38292174    -0.39700
N1609       N  0.39544631  0.65985408  0.43377293    -0.37500
N1610       N  0.34991639  0.70241935  0.45991439    -0.39900
N1611       N  0.32971987  0.72927017  0.38729997    -0.39700
N1612       N  0.27965874  0.77286593  0.40409173    -0.37300
N1613       N  0.23711233  0.69163013  0.48179837    -0.38300
N1614       N  0.28351699  0.64691560  0.45910430    -0.40000
C1615       C  0.15230554  0.72846887  0.48361090    -0.04900
C1616       C  0.13553181  0.73574215  0.46773728     0.09200
C1617       C  0.14261906  0.74522414  0.44660931    -0.02300
C1618       C  0.16612058  0.74770137  0.44161227    -0.00600
C1619       C  0.18270045  0.74234993  0.45827407    -0.04200
C1620       C  0.17576799  0.73252993  0.47923715     0.02800
C1621       C  0.11041906  0.73435643  0.47342639     0.09700
C1622       C  0.12570633  0.75331711  0.43033622     0.35600
C1623       C  0.19262192  0.72779330  0.49679974     0.39000
C1624       C  0.10076769  0.74881546  0.49036891    -0.04600
C1625       C  0.07692806  0.74867359  0.49458019     0.02600
C1626       C  0.06235174  0.73492999  0.48113651    -0.04200
C1627       C  0.07200672  0.72039246  0.46427954    -0.00400
C1628       C  0.09596456  0.71962396  0.46093149    -0.03000
C1629       C  0.11533184  0.76409182  0.50332321     0.36300
C1630       C  0.05723437  0.70694904  0.44962933     0.39900
C1631       C  0.06750174  0.76205016  0.51334020     0.39000
C1632       C  0.10580867  0.70366832  0.44456219     0.36000
C1633       C  0.14538870  0.71713765  0.50458432     0.36700
C1634       C  0.17330936  0.75575300  0.41925372     0.39900
N1635       N  0.05994919  0.77250908  0.52842778    -0.38200
N1636       N  0.12696321  0.77621207  0.51372175    -0.39700
N1637       N  0.04542835  0.69640119  0.43780880    -0.37500
N1638       N  0.11372372  0.69094524  0.43153743    -0.39900
N1639       N  0.11217418  0.75980057  0.41741149    -0.39700
N1640       N  0.17903339  0.76179180  0.40127580    -0.37300
N1641       N  0.20599380  0.72426913  0.51095778    -0.38300
N1642       N  0.13988819  0.70804258  0.52130101    -0.40000
C1643       C  0.23023616  0.88722556  0.48883136    -0.04900
C1644       C  0.24464503  0.87752799  0.47194042     0.09200
C1645       C  0.26011975  0.89160764  0.45989495    -0.02300
C1646       C  0.26079749  0.91536669  0.46430712    -0.00600
C1647       C  0.24637770  0.92511765  0.48126085    -0.04200
C1648       C  0.23131853  0.91084626  0.49371489     0.02800
C1649       C  0.24309641  0.85249641  0.46657061     0.09700
C1650       C  0.27531585  0.88157002  0.44291865     0.35600
C1651       C  0.21744290  0.92029828  0.51211207     0.39000
C1652       C  0.23077701  0.84510031  0.44721182    -0.04600
C1653       C  0.22811176  0.82149856  0.44287334     0.02600
C1654       C  0.23766683  0.80514088  0.45793147    -0.04200
C1655       C  0.25028800  0.81253965  0.47708906    -0.00400
C1656       C  0.25311200  0.83614967  0.48131780    -0.03000
C1657       C  0.22043146  0.86184482  0.43203984     0.36300
C1658       C  0.25936167  0.79584835  0.49308948     0.39900
C1659       C  0.21555737  0.81406816  0.42285771     0.39000
C1660       C  0.26596793  0.84369462  0.50108954     0.36000
C1661       C  0.21413680  0.87284532  0.50107840     0.36700
C1662       C  0.27569360  0.92986765  0.45072948     0.39900
N1663       N  0.20557397  0.80828975  0.40681220    -0.38200
N1664       N  0.21222589  0.87525941  0.41997056    -0.39700
N1665       N  0.26643148  0.78246335  0.50588073    -0.37500
N1666       N  0.27617503  0.84976329  0.51688624    -0.39900
N1667       N  0.28744336  0.87350085  0.42941205    -0.39700
N1668       N  0.28748056  0.94146450  0.43983128    -0.37300
N1669       N  0.20648588  0.92786250  0.52684932    -0.38300
N1670       N  0.20130123  0.86133685  0.51081179    -0.40000
C1671       C  0.70941804  0.54321330  0.69587983    -0.04900
C1672       C  0.69724188  0.56407125  0.69784605     0.09200
C1673       C  0.70056103  0.57796013  0.71734436    -0.02300
C1674       C  0.71652709  0.57142731  0.73430966    -0.00600
C1675       C  0.72857634  0.55046442  0.73241630    -0.04200
C1676       C  0.72462101  0.53620229  0.71332641     0.02800
C1677       C  0.68118185  0.57159300  0.67917920     0.09700
C1678       C  0.68740064  0.59892776  0.71997403     0.35600
C1679       C  0.73550314  0.51387752  0.71204886     0.39000
C1680       C  0.65897508  0.56238909  0.67770025    -0.04600
C1681       C  0.64376414  0.56974071  0.66034158     0.02600
C1682       C  0.65052122  0.58664412  0.64421040    -0.04200
C1683       C  0.67292927  0.59584058  0.64593078    -0.00400
C1684       C  0.68813886  0.58818036  0.66314377    -0.03000
C1685       C  0.65151382  0.54588920  0.69468074     0.36300
C1686       C  0.68081686  0.61337045  0.63034504     0.39900
C1687       C  0.62049035  0.56126651  0.66059841     0.39000
C1688       C  0.71110837  0.59749426  0.66451225     0.36000
C1689       C  0.70638062  0.52904743  0.67575785     0.36700
C1690       C  0.72111667  0.58666164  0.75331807     0.39900
N1691       N  0.60196082  0.55438938  0.66127004    -0.38200
N1692       N  0.64560595  0.53278714  0.70830220    -0.39700
N1693       N  0.68826680  0.62760695  0.61880918    -0.37500
N1694       N  0.72941328  0.60490917  0.66565513    -0.39900
N1695       N  0.67678850  0.61558577  0.72211267    -0.39700
N1696       N  0.72492136  0.59897834  0.76832729    -0.37300
N1697       N  0.74384242  0.49588443  0.71111993    -0.38300
N1698       N  0.70396328  0.51782405  0.65963810    -0.40000
C1699       C  0.89001622  0.50225909  0.76447664    -0.04900
C1700       C  0.88162601  0.52210372  0.75347117     0.09200
C1701       C  0.89700908  0.53706971  0.74245096    -0.02300
C1702       C  0.92071100  0.53228638  0.74249267    -0.00600
C1703       C  0.92916570  0.51269761  0.75392679    -0.04200
C1704       C  0.91373716  0.49754954  0.76470202     0.02800
C1705       C  0.85661400  0.52773859  0.75433902     0.09700
C1706       C  0.88841532  0.55766511  0.73152859     0.35600
C1707       C  0.92222219  0.47675107  0.77538976     0.39000
C1708       C  0.84767170  0.54002102  0.77309465    -0.04600
C1709       C  0.82394688  0.54432044  0.77473634     0.02600
C1710       C  0.80883828  0.53634635  0.75753293    -0.04200
C1711       C  0.81814270  0.52535007  0.73797587    -0.00400
C1712       C  0.84190560  0.52072817  0.73661670    -0.03000
C1713       C  0.86296626  0.54784198  0.79096148     0.36300
C1714       C  0.80343847  0.51814183  0.71944941     0.39900
C1715       C  0.81519050  0.55716504  0.79418494     0.39000
C1716       C  0.85121781  0.50804768  0.71734645     0.36000
C1717       C  0.87419042  0.48680278  0.77570647     0.36700
C1718       C  0.93646912  0.54784141  0.73127387     0.39900
N1719       N  0.80825232  0.56734998  0.80974182    -0.38200
N1720       N  0.87524755  0.55401620  0.80515736    -0.39700
N1721       N  0.79212070  0.51250802  0.70427143    -0.37500
N1722       N  0.85867969  0.49781267  0.70206686    -0.39900
N1723       N  0.88150430  0.57413623  0.72291651    -0.39700
N1724       N  0.94908663  0.56017666  0.72229939    -0.37300
N1725       N  0.92903626  0.46012733  0.78379682    -0.38300
N1726       N  0.86154217  0.47450675  0.78468784    -0.40000
C1727       C  0.75163456  0.52826518  0.89852897    -0.04900
C1728       C  0.73994017  0.51260558  0.88438799     0.09200
C1729       C  0.72806355  0.49411793  0.89436448    -0.02300
C1730       C  0.72804157  0.49117251  0.91832754    -0.00600
C1731       C  0.73996694  0.50669687  0.93246142    -0.04200
C1732       C  0.75157632  0.52537349  0.92249753     0.02800
C1733       C  0.74082441  0.51524575  0.85890079     0.09700
C1734       C  0.71605582  0.47801159  0.87988163     0.35600
C1735       C  0.76283284  0.54203400  0.93698444     0.39000
C1736       C  0.75587958  0.50150158  0.84588332    -0.04600
C1737       C  0.75822386  0.50520288  0.82217140     0.02600
C1738       C  0.74613540  0.52331529  0.81130565    -0.04200
C1739       C  0.72966968  0.53583910  0.82410290    -0.00400
C1740       C  0.72713280  0.53184001  0.84784483    -0.03000
C1741       C  0.76954514  0.48397711  0.85707268     0.36300
C1742       C  0.71568993  0.55324928  0.81324429     0.39900
C1743       C  0.77299488  0.49008265  0.80893428     0.39000
C1744       C  0.71085090  0.54520523  0.86114065     0.36000
C1745       C  0.76390249  0.54726215  0.88833963     0.36700
C1746       C  0.71625638  0.47177992  0.92837359     0.39900
N1747       N  0.78473303  0.47802257  0.79836218    -0.38200
N1748       N  0.78043509  0.47001243  0.86601103    -0.39700
N1749       N  0.70413501  0.56701273  0.80485127    -0.37500
N1750       N  0.69793841  0.55585802  0.87185118    -0.39900
N1751       N  0.70657661  0.46513544  0.86827065    -0.39700
N1752       N  0.70686779  0.45630538  0.93638080    -0.37300
N1753       N  0.77167365  0.55534348  0.94861861    -0.38300
N1754       N  0.77364689  0.56242517  0.88016944    -0.40000
C1755       C  0.73217278  0.60448179  0.00787689    -0.04900
C1756       C  0.74790621  0.61204200  0.02455417     0.09200
C1757       C  0.76192850  0.59586726  0.03579809    -0.02300
C1758       C  0.76006314  0.57231476  0.03065181    -0.00600
C1759       C  0.74454984  0.56469648  0.01368566    -0.04200
C1760       C  0.73072440  0.58099892  0.00222591     0.02800
C1761       C  0.74947250  0.63707682  0.03032112     0.09700
C1762       C  0.77829098  0.60351930  0.05275088     0.35600
C1763       C  0.71555349  0.57379221  0.98401707     0.39000
C1764       C  0.74021400  0.64551200  0.05106586    -0.04600
C1765       C  0.73979092  0.66928469  0.05543953     0.02600
C1766       C  0.74778881  0.68483698  0.03877886    -0.04200
C1767       C  0.75817898  0.67639249  0.01863440    -0.00400
C1768       C  0.75939518  0.65256601  0.01461496    -0.03000
C1769       C  0.73043904  0.62978619  0.06759173     0.36300
C1770       C  0.76657939  0.69222815  0.00149549     0.39900
C1771       C  0.73111767  0.67779367  0.07712325     0.39000
C1772       C  0.77039597  0.64395050  0.99404709     0.36000
C1773       C  0.71730160  0.62094524  0.99663457     0.36700
C1774       C  0.77360106  0.55588841  0.04350993     0.39900
N1775       N  0.72455058  0.68446593  0.09461003    -0.38200
N1776       N  0.72270331  0.61721902  0.08079725    -0.39700
N1777       N  0.77319318  0.70475501  0.98766317    -0.37500
N1778       N  0.77920371  0.63704412  0.97765833    -0.39900
N1779       N  0.79126392  0.60967019  0.06632764    -0.39700
N1780       N  0.78435087  0.54279096  0.05381628    -0.37300
N1781       N  0.70353255  0.56806757  0.96941149    -0.38300
N1782       N  0.70547402  0.63413480  0.98770925    -0.40000
C1783       C  0.71904151  0.34487395  0.96807898    -0.04900
C1784       C  0.73551915  0.35463733  0.98266404     0.09200
C1785       C  0.75106181  0.34025757  0.99439820    -0.02300
C1786       C  0.74959081  0.31619080  0.99223581    -0.00600
C1787       C  0.73274069  0.30637339  0.97803218    -0.04200
C1788       C  0.71781338  0.32089776  0.96555120     0.02800
C1789       C  0.73640862  0.38013411  0.98566238     0.09700
C1790       C  0.76849621  0.35032531  0.00879083     0.35600
C1791       C  0.70143367  0.31119932  0.94966106     0.39000
C1792       C  0.72575003  0.39058690  0.00473787    -0.04600
C1793       C  0.72639871  0.41460769  0.00745368     0.02600
C1794       C  0.73741424  0.42839682  0.99090533    -0.04200
C1795       C  0.74807105  0.41790629  0.97180693    -0.00400
C1796       C  0.74762305  0.39386171  0.96925571    -0.03000
C1797       C  0.71411364  0.37655674  0.02158180     0.36300
C1798       C  0.75906736  0.43187795  0.95447981     0.39900
C1799       C  0.71655288  0.42505632  0.02778285     0.39000
C1800       C  0.75875800  0.38313243  0.94976876     0.36000
C1801       C  0.70316869  0.35956187  0.95581506     0.36700
C1802       C  0.76482119  0.30157124  0.00532835     0.39900
N1803       N  0.70885273  0.43342166  0.04405122    -0.38200
N1804       N  0.70483078  0.36534421  0.03501091    -0.39700
N1805       N  0.76779055  0.44300999  0.94061205    -0.37500
N1806       N  0.76762122  0.37446238  0.93426619    -0.39900
N1807       N  0.78241775  0.35845198  0.02021108    -0.39700
N1808       N  0.77694540  0.28989080  0.01580556    -0.37300
N1809       N  0.68844874  0.30337797  0.93698361    -0.38300
N1810       N  0.69050058  0.37126681  0.94602858    -0.40000
C1811       C  0.60231216  0.76552421  0.02546861    -0.04900
C1812       C  0.61781298  0.75193530  0.01279575     0.09200
C1813       C  0.60969069  0.73812045  0.99478208    -0.02300
C1814       C  0.58607175  0.73755579  0.98971277    -0.00600
C1815       C  0.57043077  0.75097771  0.00257711    -0.04200
C1816       C  0.57874005  0.76512403  0.02037386     0.02800
C1817       C  0.64225559  0.75006832  0.02016934     0.09700
C1818       C  0.62568178  0.72409673  0.98181538     0.35600
C1819       C  0.56297313  0.77853935  0.03424453     0.39000
C1820       C  0.64794896  0.73505846  0.03815341    -0.04600
C1821       C  0.67097120  0.73191524  0.04451048     0.02600
C1822       C  0.68860792  0.74376494  0.03291057    -0.04200
C1823       C  0.68280149  0.75959779  0.01552199    -0.00400
C1824       C  0.65964426  0.76266093  0.00911051    -0.03000
C1825       C  0.62999688  0.72249855  0.04987245     0.36300
C1826       C  0.70066284  0.77195662  0.00352423     0.39900
C1827       C  0.67633019  0.71652054  0.06321337     0.39000
C1828       C  0.65368239  0.77836797  0.99084227     0.36000
C1829       C  0.61060152  0.77934700  0.04430525     0.36700
C1830       C  0.57798850  0.72338963  0.97104811     0.39900
N1831       N  0.68012459  0.70417945  0.07821849    -0.38200
N1832       N  0.61560164  0.71258060  0.05917227    -0.39700
N1833       N  0.71491548  0.78183553  0.99395831    -0.37500
N1834       N  0.64889724  0.79085875  0.97622721    -0.39900
N1835       N  0.63852184  0.71295870  0.97151787    -0.39700
N1836       N  0.57155351  0.71203768  0.95619041    -0.37300
N1837       N  0.55046224  0.78926265  0.04534604    -0.38300
N1838       N  0.61718959  0.79025364  0.05942210    -0.40000
C1839       C  0.40127699  0.77204522  0.95969972    -0.04900
C1840       C  0.38664997  0.75570031  0.96972205     0.09200
C1841       C  0.39604053  0.73801932  0.98329881    -0.02300
C1842       C  0.41981821  0.73704846  0.98738643    -0.00600
C1843       C  0.43466945  0.75292305  0.97671718    -0.04200
C1844       C  0.42520682  0.77028673  0.96258098     0.02800
C1845       C  0.36143425  0.75621839  0.96506217     0.09700
C1846       C  0.38119592  0.72052135  0.99275809     0.35600
C1847       C  0.44003279  0.78590044  0.95021111     0.39000
C1848       C  0.35321040  0.74960602  0.94335876    -0.04600
C1849       C  0.32950048  0.74758857  0.93962315     0.02600
C1850       C  0.31394946  0.75096449  0.95783147    -0.04200
C1851       C  0.32199332  0.75842433  0.97928112    -0.00400
C1852       C  0.34568832  0.76163147  0.98271510    -0.03000
C1853       C  0.36918820  0.74369266  0.92521036     0.36300
C1854       C  0.30603210  0.76170481  0.99807337     0.39900
C1855       C  0.32104273  0.74131567  0.91717591     0.39000
C1856       C  0.35397907  0.76983454  0.00458051     0.36000
C1857       C  0.39164468  0.79064500  0.94630431     0.36700
C1858       C  0.42872400  0.72022811  0.00335619     0.39900
N1859       N  0.31418697  0.73643079  0.89928411    -0.38200
N1860       N  0.38197508  0.73893173  0.91078312    -0.39700
N1861       N  0.29334795  0.76418686  0.01314224    -0.37500
N1862       N  0.36063936  0.77641255  0.02199908    -0.39900
N1863       N  0.36931163  0.70655354  0.00018907    -0.39700
N1864       N  0.43570292  0.70689473  0.01624856    -0.37300
N1865       N  0.45184382  0.79827562  0.94024170    -0.38300
N1866       N  0.38394280  0.80547055  0.93562655    -0.40000
C1867       C  0.70437257  0.39407686  0.27579398    -0.04900
C1868       C  0.69966900  0.40714501  0.29560012     0.09200
C1869       C  0.71195433  0.42750086  0.29960169    -0.02300
C1870       C  0.72844976  0.43505218  0.28360232    -0.00600
C1871       C  0.73273812  0.42226647  0.26351199    -0.04200
C1872       C  0.72105759  0.40147871  0.25994734     0.02800
C1873       C  0.68193469  0.39929556  0.31244109     0.09700
C1874       C  0.70736476  0.44077552  0.32009508     0.35600
C1875       C  0.72675945  0.38733419  0.24033516     0.39000
C1876       C  0.68723885  0.38201558  0.32832193    -0.04600
C1877       C  0.67055911  0.37435900  0.34412365     0.02600
C1878       C  0.64857736  0.38514727  0.34530679    -0.04200
C1879       C  0.64298193  0.40127041  0.32792385    -0.00400
C1880       C  0.65959908  0.40838926  0.31181481    -0.03000
C1881       C  0.71001489  0.37186168  0.32813279     0.36300
C1882       C  0.61959066  0.40900440  0.32487067     0.39900
C1883       C  0.67626786  0.35433132  0.35754817     0.39000
C1884       C  0.65358147  0.42469193  0.29405018     0.36000
C1885       C  0.69177271  0.37316089  0.27161499     0.36700
C1886       C  0.74069025  0.45621432  0.28759706     0.39900
N1887       N  0.68154227  0.33768282  0.36694231    -0.38200
N1888       N  0.72814196  0.36375222  0.32791752    -0.39700
N1889       N  0.60106994  0.41523470  0.32153363    -0.37500
N1890       N  0.64881414  0.43759390  0.27979158    -0.39900
N1891       N  0.70359635  0.45133768  0.33644531    -0.39700
N1892       N  0.75050067  0.47306981  0.29082505    -0.37300
N1893       N  0.73152281  0.37584478  0.22488773    -0.38300
N1894       N  0.68165147  0.35650464  0.26832253    -0.40000
C1895       C  0.74980332  0.48518083  0.15587963    -0.04900
C1896       C  0.73729873  0.47076426  0.14123765     0.09200
C1897       C  0.72606758  0.45142041  0.15029173    -0.02300
C1898       C  0.72925845  0.44519967  0.17343138    -0.00600
C1899       C  0.74352064  0.45854887  0.18763142    -0.04200
C1900       C  0.75254219  0.47933648  0.17906971     0.02800
C1901       C  0.73738773  0.47519143  0.11603191     0.09700
C1902       C  0.71186672  0.43753656  0.13550531     0.35600
C1903       C  0.76502337  0.49462161  0.19408203     0.39000
C1904       C  0.75210464  0.46238749  0.10163921    -0.04600
C1905       C  0.75306693  0.46707448  0.07798765     0.02600
C1906       C  0.73980815  0.48511466  0.06865380    -0.04200
C1907       C  0.72537265  0.49818260  0.08322971    -0.00400
C1908       C  0.72383339  0.49289857  0.10672979    -0.03000
C1909       C  0.76642001  0.44445976  0.11127565     0.36300
C1910       C  0.71278576  0.51770301  0.07430179     0.39900
C1911       C  0.76715385  0.45278424  0.06321437     0.39000
C1912       C  0.70829966  0.50565792  0.12143443     0.36000
C1913       C  0.76075025  0.50552015  0.14681088     0.36700
C1914       C  0.71885035  0.42443885  0.18205238     0.39900
N1915       N  0.77831911  0.44134927  0.05140688    -0.38200
N1916       N  0.77782776  0.43018806  0.11901456    -0.39700
N1917       N  0.70287569  0.53336593  0.06721108    -0.37500
N1918       N  0.69587801  0.51574595  0.13321347    -0.39900
N1919       N  0.70051790  0.42652007  0.12366691    -0.39700
N1920       N  0.71029347  0.40787964  0.18867863    -0.37300
N1921       N  0.77495482  0.50677761  0.20608537    -0.38300
N1922       N  0.76946803  0.52172973  0.13954356    -0.40000
C1923       C  0.88771624  0.48498196  0.24673804    -0.04900
C1924       C  0.88231237  0.46253059  0.23959588     0.09200
C1925       C  0.90008486  0.44758531  0.23251299    -0.02300
C1926       C  0.92300515  0.45508723  0.23235291    -0.00600
C1927       C  0.92845933  0.47727183  0.24018163    -0.04200
C1928       C  0.91075317  0.49220270  0.24739138     0.02800
C1929       C  0.85778646  0.45509065  0.23814085     0.09700
C1930       C  0.89473462  0.42447135  0.22525258     0.35600
C1931       C  0.91618432  0.51529572  0.25466521     0.39000
C1932       C  0.84753089  0.45227510  0.21656915    -0.04600
C1933       C  0.82456474  0.44527349  0.21491814     0.02600
C1934       C  0.81060155  0.44344481  0.23487864    -0.04200
C1935       C  0.82122702  0.44555492  0.25660215    -0.00400
C1936       C  0.84482064  0.45084498  0.25812209    -0.03000
C1937       C  0.86050020  0.45724918  0.19591547     0.36300
C1938       C  0.80812266  0.44282061  0.27752955     0.39900
C1939       C  0.81576480  0.43934882  0.19246256     0.39000
C1940       C  0.85579928  0.45220344  0.28030668     0.36000
C1941       C  0.86948200  0.50084579  0.25279180     0.36700
C1942       C  0.94100895  0.43984260  0.22429791     0.39900
N1943       N  0.80886402  0.43457511  0.17454977    -0.38200
N1944       N  0.87082093  0.46131281  0.17948181    -0.39700
N1945       N  0.79787352  0.44056870  0.29436072    -0.37500
N1946       N  0.86460121  0.45326346  0.29798363    -0.39900
N1947       N  0.89042071  0.40608864  0.21933356    -0.39700
N1948       N  0.95531112  0.42770653  0.21771337    -0.37300
N1949       N  0.92052754  0.53373238  0.26040308    -0.38300
N1950       N  0.85488170  0.51346901  0.25754880    -0.40000
C1951       C  0.43394619  0.65472584  0.31010739    -0.04900
C1952       C  0.42642245  0.67766396  0.30905951     0.09200
C1953       C  0.40987701  0.68558793  0.32485278    -0.02300
C1954       C  0.40091510  0.67073701  0.34168924    -0.00600
C1955       C  0.40782453  0.64747152  0.34241722    -0.04200
C1956       C  0.42449060  0.63958399  0.32642289     0.02800
C1957       C  0.43529297  0.69350112  0.29088420     0.09700
C1958       C  0.40177003  0.70907359  0.32342694     0.35600
C1959       C  0.43079768  0.61553114  0.32550519     0.39000
C1960       C  0.42585287  0.69300149  0.26872274    -0.04600
C1961       C  0.43257369  0.70927241  0.25215915     0.02600
C1962       C  0.44882633  0.72640626  0.25765987    -0.04200
C1963       C  0.45889192  0.72623909  0.27972883    -0.00400
C1964       C  0.45219456  0.70980693  0.29616253    -0.03000
C1965       C  0.40884513  0.67588934  0.26308595     0.36300
C1966       C  0.47659349  0.74257255  0.28551948     0.39900
C1967       C  0.42201418  0.70864567  0.22972755     0.39000
C1968       C  0.46275117  0.70954753  0.31859424     0.36000
C1969       C  0.45115268  0.64661289  0.29403589     0.36700
C1970       C  0.38496948  0.67980081  0.35849103     0.39900
N1971       N  0.41361201  0.70793735  0.21183545    -0.38200
N1972       N  0.39533559  0.66221805  0.25851197    -0.39700
N1973       N  0.49068811  0.75561278  0.29018948    -0.37500
N1974       N  0.47119720  0.70924310  0.33647648    -0.39900
N1975       N  0.39532829  0.72779672  0.32211127    -0.39700
N1976       N  0.37232033  0.68757211  0.37168299    -0.37300
N1977       N  0.43575052  0.59633228  0.32472294    -0.38300
N1978       N  0.46488014  0.64012845  0.28122244    -0.40000
C1979       C  0.49357196  0.74417389  0.14592805    -0.04900
C1980       C  0.47502566  0.74528458  0.13054163     0.09200
C1981       C  0.45242814  0.74706123  0.13905917    -0.02300
C1982       C  0.44851115  0.74912623  0.16281367    -0.00600
C1983       C  0.46716439  0.74904210  0.17809505    -0.04200
C1984       C  0.48962313  0.74587887  0.16967309     0.02800
C1985       C  0.47947136  0.74624203  0.10532463     0.09700
C1986       C  0.43331721  0.74746054  0.12328257     0.35600
C1987       C  0.50869266  0.74476251  0.18547866     0.39000
C1988       C  0.47888554  0.72622725  0.09202342    -0.04600
C1989       C  0.48326160  0.72718660  0.06823921     0.02600
C1990       C  0.48877036  0.74842798  0.05738986    -0.04200
C1991       C  0.48920184  0.76855433  0.07122370    -0.00400
C1992       C  0.48449279  0.76734391  0.09490791    -0.03000
C1993       C  0.47388115  0.70450961  0.10301175     0.36300
C1994       C  0.49460089  0.79079107  0.06160136     0.39900
C1995       C  0.48169449  0.70601572  0.05534224     0.39000
C1996       C  0.48487649  0.78795355  0.10881236     0.36000
C1997       C  0.51676708  0.74198928  0.13721822     0.36700
C1998       C  0.42539577  0.75219889  0.17148759     0.39900
N1999       N  0.48039879  0.68899077  0.04529769    -0.38200
N2000       N  0.46993230  0.68721756  0.11181431    -0.39700
N2001       N  0.49882840  0.80865039  0.05416106    -0.37500
N2002       N  0.48516818  0.80430934  0.11998088    -0.39900
N2003       N  0.41809851  0.74770214  0.11064840    -0.39700
N2004       N  0.40695809  0.75470031  0.17841519    -0.37300
N2005       N  0.52386465  0.74375705  0.19813521    -0.38300
N2006       N  0.53526742  0.74032904  0.13022129    -0.40000
C2007       C  0.45474781  0.84285268  0.25640567    -0.04900
C2008       C  0.47318343  0.85474187  0.24633743     0.09200
C2009       C  0.48943925  0.84270055  0.23306092    -0.02300
C2010       C  0.48700790  0.81902019  0.22934180    -0.00600
C2011       C  0.46784233  0.80717143  0.23830502    -0.04200
C2012       C  0.45199744  0.81914269  0.25236131     0.02800
C2013       C  0.47549255  0.88011356  0.24905751     0.09700
C2014       C  0.50851943  0.85487429  0.22280706     0.35600
C2015       C  0.43237648  0.80739676  0.26197220     0.39000
C2016       C  0.49194163  0.88912036  0.26417124    -0.04600
C2017       C  0.49682372  0.91276243  0.26404034     0.02600
C2018       C  0.48485256  0.92763305  0.24909819    -0.04200
C2019       C  0.46731575  0.91874239  0.23506781    -0.00400
C2020       C  0.46287479  0.89503659  0.23483933    -0.03000
C2021       C  0.50429302  0.87384189  0.27938111     0.36300
C2022       C  0.45363511  0.93403102  0.22100494     0.39900
C2023       C  0.51509379  0.92143914  0.27833537     0.39000
C2024       C  0.44579257  0.88587270  0.21943215     0.36000
C2025       C  0.43846383  0.85518303  0.27064354     0.36700
C2026       C  0.50465565  0.80686497  0.21661750     0.39900
N2027       N  0.52974947  0.92824644  0.28970557    -0.38200
N2028       N  0.51408587  0.86158468  0.29149465    -0.39700
N2029       N  0.44274851  0.94631835  0.20988304    -0.37500
N2030       N  0.43217263  0.87857705  0.20711939    -0.39900
N2031       N  0.52369285  0.86463778  0.21465291    -0.39700
N2032       N  0.51888997  0.79738131  0.20650389    -0.37300
N2033       N  0.41672283  0.79805437  0.26970670    -0.38300
N2034       N  0.42551531  0.86510497  0.28199226    -0.40000
C2035       C  0.58049569  0.71397610  0.69214943    -0.04900
C2036       C  0.56789857  0.69343742  0.69206405     0.09200
C2037       C  0.54907831  0.69087983  0.70698942    -0.02300
C2038       C  0.54274011  0.70884918  0.72190401    -0.00600
C2039       C  0.55552975  0.72937925  0.72230307    -0.04200
C2040       C  0.57451853  0.73178933  0.70735835     0.02800
C2041       C  0.57501972  0.67416102  0.67673292     0.09700
C2042       C  0.53640416  0.66958402  0.70706660     0.35600
C2043       C  0.58859564  0.75218491  0.70823062     0.39000
C2044       C  0.59248368  0.65903740  0.68367285    -0.04600
C2045       C  0.60011923  0.64147181  0.66891578     0.02600
C2046       C  0.59101512  0.63943835  0.64654768    -0.04200
C2047       C  0.57280083  0.65431901  0.63997479    -0.00400
C2048       C  0.56469471  0.67133323  0.65519450    -0.03000
C2049       C  0.60278169  0.66177015  0.70608345     0.36300
C2050       C  0.56380547  0.65390055  0.61685769     0.39900
C2051       C  0.61695102  0.62535003  0.67743951     0.39000
C2052       C  0.54618427  0.68653320  0.64843969     0.36000
C2053       C  0.59982596  0.71667017  0.67672260     0.36700
C2054       C  0.52265723  0.70636010  0.73634393     0.39900
N2055       N  0.63029039  0.61306235  0.68543538    -0.38200
N2056       N  0.61104880  0.66401296  0.72390561    -0.39700
N2057       N  0.55665787  0.65370859  0.59841041    -0.37500
N2058       N  0.53135722  0.69861858  0.64313897    -0.39900
N2059       N  0.52642159  0.65251791  0.70705795    -0.39700
N2060       N  0.50658617  0.70434446  0.74780040    -0.37300
N2061       N  0.59986484  0.76841301  0.70896660    -0.38300
N2062       N  0.61526623  0.71894906  0.66447764    -0.40000
C2063       C  0.52905852  0.89816939  0.71805184    -0.04900
C2064       C  0.52724109  0.88377610  0.73719450     0.09200
C2065       C  0.51977101  0.89275191  0.75830356    -0.02300
C2066       C  0.51388781  0.91613453  0.76034324    -0.00600
C2067       C  0.51547706  0.93099132  0.74107779    -0.04200
C2068       C  0.52327319  0.92159212  0.71982792     0.02800
C2069       C  0.53285623  0.85887950  0.73522248     0.09700
C2070       C  0.51796790  0.87767088  0.77798587     0.35600
C2071       C  0.52569341  0.93565573  0.69948681     0.39000
C2072       C  0.55465802  0.85075525  0.74177704    -0.04600
C2073       C  0.55879011  0.82702699  0.74335954     0.02600
C2074       C  0.54125337  0.81141411  0.73802846    -0.04200
C2075       C  0.52004127  0.81951944  0.72976619    -0.00400
C2076       C  0.51580075  0.84326192  0.72846896    -0.03000
C2077       C  0.57248074  0.86685878  0.74776558     0.36300
C2078       C  0.50214082  0.80342855  0.72393816     0.39900
C2079       C  0.58073599  0.81860567  0.75144301     0.39000
C2080       C  0.49353997  0.85167973  0.72130338     0.36000
C2081       C  0.53694324  0.88871361  0.69641643     0.36700
C2082       C  0.50581921  0.92437227  0.78237827     0.39900
N2083       N  0.59819399  0.81179665  0.75792934    -0.38200
N2084       N  0.58668523  0.87974253  0.75251883    -0.39700
N2085       N  0.48787326  0.79057346  0.71929188    -0.37500
N2086       N  0.47579083  0.85848128  0.71564164    -0.39900
N2087       N  0.51658064  0.86558268  0.79361400    -0.39700
N2088       N  0.49949427  0.93071999  0.80007793    -0.37300
N2089       N  0.52758867  0.94666199  0.68312239    -0.38300
N2090       N  0.54321732  0.88114362  0.67918849    -0.40000
C2091       C  0.51603477  0.76824590  0.83576086    -0.04900
C2092       C  0.52997242  0.75336326  0.84867216     0.09200
C2093       C  0.54660534  0.73969576  0.83752914    -0.02300
C2094       C  0.54969235  0.74133169  0.81357000    -0.00600
C2095       C  0.53614735  0.75678296  0.80063445    -0.04200
C2096       C  0.51881850  0.76972417  0.81188559     0.02800
C2097       C  0.52629434  0.75171766  0.87397610     0.09700
C2098       C  0.56064105  0.72408025  0.85081130     0.35600
C2099       C  0.50327762  0.78422266  0.79892312     0.39000
C2100       C  0.50723534  0.73963912  0.88254163    -0.04600
C2101       C  0.50204985  0.74014453  0.90610475     0.02600
C2102       C  0.51632279  0.75217767  0.92140294    -0.04200
C2103       C  0.53579313  0.76372690  0.91290781    -0.00400
C2104       C  0.54059146  0.76374080  0.88920993    -0.03000
C2105       C  0.49274014  0.72700472  0.86692239     0.36300
C2106       C  0.55122248  0.77507230  0.92861857     0.39900
C2107       C  0.48141006  0.72913400  0.91442992     0.39000
C2108       C  0.55999468  0.77644918  0.88041817     0.36000
C2109       C  0.49881657  0.78221503  0.84718387     0.36700
C2110       C  0.56717693  0.72748325  0.80247454     0.39900
N2111       N  0.46485661  0.72049801  0.92102714    -0.38200
N2112       N  0.48125684  0.71698540  0.85435081    -0.39700
N2113       N  0.56353811  0.78399439  0.94123351    -0.37500
N2114       N  0.57545779  0.78662587  0.87340310    -0.39900
N2115       N  0.57188174  0.71166734  0.86142891    -0.39700
N2116       N  0.58103386  0.71631137  0.79361880    -0.37300
N2117       N  0.49090473  0.79579572  0.78861233    -0.38300
N2118       N  0.48509201  0.79329674  0.85634156    -0.40000
C2119       C  0.67935998  0.65667950  0.56783273    -0.04900
C2120       C  0.67665605  0.67962714  0.57481809     0.09200
C2121       C  0.65836902  0.68562068  0.58939705    -0.02300
C2122       C  0.64295805  0.66873195  0.59721348    -0.00600
C2123       C  0.64543153  0.64559420  0.59020304    -0.04200
C2124       C  0.66386550  0.63974914  0.57542261     0.02800
C2125       C  0.69366406  0.69734020  0.56746043     0.09700
C2126       C  0.65559232  0.70929536  0.59654572     0.35600
C2127       C  0.66866312  0.61595892  0.57014492     0.39000
C2128       C  0.69186659  0.70769883  0.54571768    -0.04600
C2129       C  0.70859639  0.72345120  0.53831254     0.02600
C2130       C  0.72710481  0.72908649  0.55272918    -0.04200
C2131       C  0.72850604  0.71925206  0.57475527    -0.00400
C2132       C  0.71183305  0.70343897  0.58210150    -0.03000
C2133       C  0.67269362  0.70216570  0.53105311     0.36300
C2134       C  0.74685636  0.72583130  0.59005142     0.39900
C2135       C  0.70716352  0.73330227  0.51557693     0.39000
C2136       C  0.71328604  0.69347114  0.60478017     0.36000
C2137       C  0.69877897  0.65038960  0.55356670     0.36700
C2138       C  0.62479520  0.67574422  0.61254310     0.39900
N2139       N  0.70608192  0.74110974  0.49740976    -0.38200
N2140       N  0.65731410  0.69776837  0.51944311    -0.39700
N2141       N  0.76150699  0.73120520  0.60217841    -0.37500
N2142       N  0.71436010  0.68560882  0.62292236    -0.39900
N2143       N  0.65339515  0.72815040  0.60227201    -0.39700
N2144       N  0.61097303  0.68296578  0.62479517    -0.37300
N2145       N  0.67330360  0.59705152  0.56637242    -0.38300
N2146       N  0.71437114  0.64550949  0.54226882    -0.40000
C2147       C  0.88706275  0.74194204  0.49732239    -0.04900
C2148       C  0.87966643  0.73417710  0.51900375     0.09200
C2149       C  0.89580882  0.72541089  0.53468371    -0.02300
C2150       C  0.91933281  0.72528641  0.52908445    -0.00600
C2151       C  0.92679443  0.73388474  0.50773384    -0.04200
C2152       C  0.91056269  0.74165903  0.49164529     0.02800
C2153       C  0.85509953  0.73702399  0.52587976     0.09700
C2154       C  0.88817533  0.71690941  0.55672718     0.35600
C2155       C  0.91801832  0.74879190  0.46904299     0.39000
C2156       C  0.83826034  0.72172566  0.51795333    -0.04600
C2157       C  0.81481401  0.72619991  0.52222981     0.02600
C2158       C  0.80815025  0.74607475  0.53446611    -0.04200
C2159       C  0.82524546  0.76037142  0.54385976    -0.00400
C2160       C  0.84857358  0.75592193  0.53945565    -0.03000
C2161       C  0.84513255  0.70160874  0.50505952     0.36300
C2162       C  0.81890858  0.77961263  0.55832974     0.39900
C2163       C  0.79763393  0.71082829  0.51321156     0.39000
C2164       C  0.86594289  0.77109168  0.54852132     0.36000
C2165       C  0.87046901  0.75061591  0.48102503     0.36700
C2166       C  0.93593528  0.71695654  0.54557355     0.39900
N2167       N  0.78394173  0.69849057  0.50609243    -0.38200
N2168       N  0.85067031  0.68554983  0.49480145    -0.39700
N2169       N  0.81383934  0.79494123  0.56986556    -0.37500
N2170       N  0.87985275  0.78308105  0.55580403    -0.39900
N2171       N  0.88204514  0.71016920  0.57432067    -0.39700
N2172       N  0.94920440  0.71032102  0.55869716    -0.37300
N2173       N  0.92398900  0.75429964  0.45096746    -0.38300
N2174       N  0.85717003  0.75749116  0.46805866    -0.40000
C2175       C  0.74455329  0.84480333  0.54806787    -0.04900
C2176       C  0.74947356  0.85531958  0.52686274     0.09200
C2177       C  0.75406121  0.84161698  0.50745527    -0.02300
C2178       C  0.75485844  0.81758924  0.50948799    -0.00600
C2179       C  0.75085122  0.80711105  0.53087654    -0.04200
C2180       C  0.74506897  0.82072965  0.55002768     0.02800
C2181       C  0.75068111  0.88085688  0.52500479     0.09700
C2182       C  0.75852445  0.85234405  0.48550382     0.35600
C2183       C  0.74078463  0.81002416  0.57201862     0.39000
C2184       C  0.77208576  0.89164071  0.52276991    -0.04600
C2185       C  0.77339628  0.91550461  0.51924707     0.02600
C2186       C  0.75308622  0.92917921  0.51854025    -0.04200
C2187       C  0.73161465  0.91812337  0.52221822    -0.00400
C2188       C  0.73051915  0.89412836  0.52489179    -0.03000
C2189       C  0.79290943  0.87795835  0.52384900     0.36300
C2190       C  0.71033522  0.93103311  0.52357470     0.39900
C2191       C  0.79591553  0.92544908  0.51600979     0.39000
C2192       C  0.70848257  0.88290763  0.52715008     0.36000
C2193       C  0.73981468  0.85880421  0.56804489     0.36700
C2194       C  0.75988587  0.80359435  0.48957016     0.39900
N2195       N  0.81395427  0.93318896  0.51342140    -0.38200
N2196       N  0.80948243  0.86703620  0.52465037    -0.39700
N2197       N  0.69326207  0.94113963  0.52474101    -0.37500
N2198       N  0.69094884  0.87392455  0.52897553    -0.39900
N2199       N  0.76221261  0.86099681  0.46807167    -0.39700
N2200       N  0.76382715  0.79242222  0.47367030    -0.37300
N2201       N  0.73734275  0.80142428  0.58952729    -0.38300
N2202       N  0.73599074  0.87000235  0.58395486    -0.40000
C2203       C  0.07954992  0.79159458  0.77803250    -0.04900
C2204       C  0.06472034  0.79796454  0.79611194     0.09200
C2205       C  0.04234262  0.78894011  0.79689185    -0.02300
C2206       C  0.03494818  0.77346291  0.77986716    -0.00600
C2207       C  0.04988910  0.76683704  0.76192791    -0.04200
C2208       C  0.07221410  0.77604018  0.76107608     0.02800
C2209       C  0.07292781  0.81398961  0.81444065     0.09700
C2210       C  0.02696610  0.79556451  0.81529218     0.35600
C2211       C  0.08801292  0.76891256  0.74324977     0.39000
C2212       C  0.06731524  0.83748406  0.81356543    -0.04600
C2213       C  0.07646592  0.85281513  0.82981486     0.02600
C2214       C  0.09095940  0.84472508  0.84750746    -0.04200
C2215       C  0.09647854  0.82113192  0.84835048    -0.00400
C2216       C  0.08744834  0.80587420  0.83194083    -0.03000
C2217       C  0.05272819  0.84600029  0.79538788     0.36300
C2218       C  0.11158908  0.81224983  0.86583198     0.39900
C2219       C  0.07306161  0.87723072  0.82667940     0.39000
C2220       C  0.09328532  0.78171374  0.83286227     0.36000
C2221       C  0.10246127  0.80105299  0.77698261     0.36700
C2222       C  0.01175916  0.76469125  0.78053259     0.39900
N2223       N  0.07082124  0.89669415  0.82366768    -0.38200
N2224       N  0.04105078  0.85277240  0.78090291    -0.39700
N2225       N  0.12366574  0.80420565  0.87928856    -0.37500
N2226       N  0.09797127  0.76244983  0.83352322    -0.39900
N2227       N  0.01469445  0.80091700  0.82995853    -0.39700
N2228       N  0.99325039  0.75770078  0.78096066    -0.37300
N2229       N  0.10090118  0.76328021  0.72923916    -0.38300
N2230       N  0.12073037  0.80861847  0.77623911    -0.40000
C2231       C  0.15845513  0.81483426  0.92578164    -0.04900
C2232       C  0.18063217  0.81372551  0.91625793     0.09200
C2233       C  0.18710304  0.82964080  0.89937336    -0.02300
C2234       C  0.17165110  0.84683790  0.89221174    -0.00600
C2235       C  0.14914015  0.84789437  0.90134813    -0.04200
C2236       C  0.14276783  0.83184430  0.91847785     0.02800
C2237       C  0.19769172  0.79631300  0.92444300     0.09700
C2238       C  0.20977789  0.82811026  0.88917541     0.35600
C2239       C  0.11967293  0.83179211  0.92771794     0.39000
C2240       C  0.20095180  0.77564045  0.91237000    -0.04600
C2241       C  0.21867744  0.76035740  0.91869191     0.02600
C2242       C  0.23298214  0.76539951  0.93756155    -0.04200
C2243       C  0.22929160  0.78599024  0.94990511    -0.00400
C2244       C  0.21174288  0.80132589  0.94333617    -0.03000
C2245       C  0.18612060  0.77026401  0.89326997     0.36300
C2246       C  0.24335696  0.79145559  0.96955959     0.39900
C2247       C  0.22295168  0.74012317  0.90489560     0.39000
C2248       C  0.20816250  0.82246036  0.95592669     0.36000
C2249       C  0.15159003  0.79790590  0.94257728     0.36700
C2250       C  0.17966485  0.86385836  0.87609453     0.39900
N2251       N  0.22646600  0.72406779  0.89379311    -0.38200
N2252       N  0.17418731  0.76597876  0.87810798    -0.39700
N2253       N  0.25460124  0.79595963  0.98517830    -0.37500
N2254       N  0.20520045  0.83930988  0.96595046    -0.39900
N2255       N  0.22779235  0.82672576  0.88095249    -0.39700
N2256       N  0.18713943  0.87702559  0.86335753    -0.37300
N2257       N  0.10126099  0.83172092  0.93512168    -0.38300
N2258       N  0.14611566  0.78427652  0.95585816    -0.40000
C2259       C  0.16548699  0.89822672  0.80575286    -0.04900
C2260       C  0.17979395  0.91671250  0.81128207     0.09200
C2261       C  0.17703311  0.92777834  0.83252302    -0.02300
C2262       C  0.16018963  0.92031419  0.84830019    -0.00600
C2263       C  0.14552517  0.90166513  0.84290281    -0.04200
C2264       C  0.14832579  0.89089817  0.82121428     0.02800
C2265       C  0.19759986  0.92476830  0.79449007     0.09700
C2266       C  0.19212074  0.94655205  0.83835931     0.35600
C2267       C  0.13365297  0.87235103  0.81407919     0.39000
C2268       C  0.19305247  0.94381722  0.78034978    -0.04600
C2269       C  0.20965291  0.95147141  0.76448907     0.02600
C2270       C  0.23091113  0.93983843  0.76225985    -0.04200
C2271       C  0.23532817  0.92057629  0.77634323    -0.00400
C2272       C  0.21881814  0.91322166  0.79248432    -0.03000
C2273       C  0.17106817  0.95539562  0.78200625     0.36300
C2274       C  0.25644458  0.90764733  0.77360817     0.39900
C2275       C  0.20495744  0.97173207  0.75089248     0.39000
C2276       C  0.22353360  0.89358254  0.80694137     0.36000
C2277       C  0.16864709  0.88653607  0.78402864     0.36700
C2278       C  0.15925205  0.93116531  0.87057704     0.39900
N2279       N  0.20119659  0.98790639  0.74006988    -0.38200
N2280       N  0.15348339  0.96453798  0.78335440    -0.39700
N2281       N  0.27326415  0.89730423  0.77134928    -0.37500
N2282       N  0.22725976  0.87788950  0.81845685    -0.39900
N2283       N  0.20422594  0.96148947  0.84291804    -0.39700
N2284       N  0.15886302  0.94021563  0.88818016    -0.37300
N2285       N  0.12282331  0.85730851  0.80727731    -0.38300
N2286       N  0.17127759  0.87710355  0.76679816    -0.40000
C2287       C  0.04893644  0.92787307  0.91846575    -0.04900
C2288       C  0.05892928  0.93814773  0.93777577     0.09200
C2289       C  0.08259974  0.93516321  0.94138709    -0.02300
C2290       C  0.09610645  0.92187284  0.92603501    -0.00600
C2291       C  0.08591676  0.90978616  0.90735777    -0.04200
C2292       C  0.06235430  0.91491478  0.90282623     0.02800
C2293       C  0.04451902  0.95278198  0.95380911     0.09700
C2294       C  0.09301606  0.94550444  0.96136846     0.35600
C2295       C  0.05175188  0.90931580  0.88120141     0.39000
C2296       C  0.02917444  0.94256216  0.96910875    -0.04600
C2297       C  0.01454915  0.95598126  0.98337369     0.02600
C2298       C  0.01403841  0.98084689  0.98206916    -0.04200
C2299       C  0.03159553  0.99059905  0.96750919    -0.00400
C2300       C  0.04606988  0.97674737  0.95349572    -0.03000
C2301       C  0.02906384  0.91766334  0.97061095     0.36300
C2302       C  0.03411998  0.01511844  0.96471000     0.39900
C2303       C  0.00243832  0.94281699  0.00044654     0.39000
C2304       C  0.06206254  0.98729583  0.93761430     0.36000
C2305       C  0.02450266  0.93054109  0.91461153     0.36700
C2306       C  0.12071512  0.92181840  0.92928990     0.39900
N2307       N  0.99383519  0.93093836  0.01373008    -0.38200
N2308       N  0.02902579  0.89788647  0.97184593    -0.39700
N2309       N  0.03732427  0.03431988  0.96111165    -0.37500
N2310       N  0.07478421  0.99561041  0.92490363    -0.39900
N2311       N  0.10121031  0.95371429  0.97737474    -0.39700
N2312       N  0.14029093  0.92185921  0.93234330    -0.37300
N2313       N  0.04233958  0.90525215  0.86430482    -0.38300
N2314       N  0.00500070  0.93214496  0.91147529    -0.40000
C2315       C  0.81615519  0.83886480  0.07095157    -0.04900
C2316       C  0.81530240  0.81664914  0.08027190     0.09200
C2317       C  0.83054470  0.81052649  0.09782811    -0.02300
C2318       C  0.84647588  0.82653624  0.10626158    -0.00600
C2319       C  0.84795624  0.84882287  0.09665290    -0.04200
C2320       C  0.83227545  0.85490115  0.07909038     0.02800
C2321       C  0.79834488  0.79949346  0.07165964     0.09700
C2322       C  0.82990506  0.78745767  0.10710556     0.35600
C2323       C  0.83133706  0.87816876  0.07050048     0.39000
C2324       C  0.80419521  0.78502360  0.05322454    -0.04600
C2325       C  0.78871792  0.76813598  0.04565803     0.02600
C2326       C  0.76704049  0.76575817  0.05631533    -0.04200
C2327       C  0.76126091  0.78033051  0.07487465    -0.00400
C2328       C  0.77694837  0.79694446  0.08262894    -0.03000
C2329       C  0.82639974  0.78739548  0.04228237     0.36300
C2330       C  0.73951730  0.77767540  0.08665587     0.39900
C2331       C  0.79512555  0.75353828  0.02662309     0.39000
C2332       C  0.77137912  0.81105149  0.10232948     0.36000
C2333       C  0.80025555  0.84522533  0.05300536     0.36700
C2334       C  0.86077429  0.81954490  0.12512742     0.39900
N2335       N  0.80061763  0.74202025  0.01144529    -0.38200
N2336       N  0.84416375  0.78939448  0.03368787    -0.39700
N2337       N  0.72216048  0.77553999  0.09602361    -0.37500
N2338       N  0.76704236  0.82218705  0.11815667    -0.39900
N2339       N  0.82946857  0.76904476  0.11440235    -0.39700
N2340       N  0.87103016  0.81272020  0.14057739    -0.37300
N2341       N  0.83024807  0.89670728  0.06360950    -0.38300
N2342       N  0.78758394  0.85026206  0.03865770    -0.40000
C2343       C  0.84067864  0.93649025  0.17999731    -0.04900
C2344       C  0.81818114  0.92820448  0.18216495     0.09200
C2345       C  0.81040781  0.91092107  0.16735736    -0.02300
C2346       C  0.82525307  0.90146661  0.15074903    -0.00600
C2347       C  0.84825019  0.90896753  0.14906933    -0.04200
C2348       C  0.85576960  0.92681621  0.16372935     0.02800
C2349       C  0.80286071  0.93695581  0.20075938     0.09700
C2350       C  0.78703064  0.90275441  0.16937533     0.35600
C2351       C  0.87947184  0.93420117  0.16344140     0.39000
C2352       C  0.78546501  0.95294952  0.19580373    -0.04600
C2353       C  0.77011477  0.96006482  0.21309948     0.02600
C2354       C  0.77184179  0.95092706  0.23556304    -0.04200
C2355       C  0.79039687  0.93600617  0.24071445    -0.00400
C2356       C  0.80559404  0.92886517  0.22328863    -0.03000
C2357       C  0.78334726  0.96197768  0.17277307     0.36300
C2358       C  0.79419279  0.92767005  0.26374477     0.39900
C2359       C  0.75311865  0.97748564  0.20779181     0.39000
C2360       C  0.82390118  0.91275420  0.22842532     0.36000
C2361       C  0.84834429  0.95479553  0.19486514     0.36700
C2362       C  0.81627344  0.88441094  0.13524644     0.39900
N2363       N  0.73962356  0.99142435  0.20354923    -0.38200
N2364       N  0.78167383  0.96910910  0.15437806    -0.39700
N2365       N  0.79814377  0.92098510  0.28194563    -0.37500
N2366       N  0.83850139  0.89994629  0.23255131    -0.39900
N2367       N  0.76837429  0.89632282  0.17094400    -0.39700
N2368       N  0.80807350  0.87088775  0.12341382    -0.37300
N2369       N  0.89838500  0.94004347  0.16335723    -0.38300
N2370       N  0.85434916  0.96940521  0.20676104    -0.40000
C2371       C  0.90451225  0.83640244  0.19108129    -0.04900
C2372       C  0.91671577  0.81702209  0.18334675     0.09200
C2373       C  0.92331323  0.81557609  0.16016494    -0.02300
C2374       C  0.91669496  0.83285632  0.14453195    -0.00600
C2375       C  0.90388455  0.85213399  0.15209978    -0.04200
C2376       C  0.89821869  0.85391940  0.17561566     0.02800
C2377       C  0.92151703  0.79757357  0.19945114     0.09700
C2378       C  0.93595210  0.79565786  0.15219599     0.35600
C2379       C  0.88571289  0.87353839  0.18425902     0.39000
C2380       C  0.90519436  0.78004750  0.20247781    -0.04600
C2381       C  0.90961830  0.76172271  0.21761372     0.02600
C2382       C  0.93023214  0.76097417  0.23019036    -0.04200
C2383       C  0.94631203  0.77882463  0.22758222    -0.00400
C2384       C  0.94202933  0.79695391  0.21213428    -0.03000
C2385       C  0.88357245  0.78107543  0.19038334     0.36300
C2386       C  0.96750487  0.77831428  0.24044749     0.39900
C2387       C  0.89255771  0.74401557  0.22082691     0.39000
C2388       C  0.95866859  0.81508351  0.20930448     0.36000
C2389       C  0.89798146  0.83798857  0.21501543     0.36700
C2390       C  0.92007752  0.82889412  0.12027054     0.39900
N2391       N  0.87892765  0.72992521  0.22342778    -0.38200
N2392       N  0.86613687  0.78171352  0.18104764    -0.39700
N2393       N  0.98436163  0.77789504  0.25080357    -0.37500
N2394       N  0.97191358  0.82958370  0.20701467    -0.39900
N2395       N  0.94603331  0.77976328  0.14583895    -0.39700
N2396       N  0.92213593  0.82492072  0.10097978    -0.37300
N2397       N  0.87580576  0.88873619  0.19229641    -0.38300
N2398       N  0.89277956  0.83914115  0.23410675    -0.40000
C2399       C  0.94489110  0.91892600  0.06485072    -0.04900
C2400       C  0.93591816  0.93965153  0.05631815     0.09200
C2401       C  0.91287398  0.94519916  0.06099195    -0.02300
C2402       C  0.89908280  0.93045490  0.07444136    -0.00600
C2403       C  0.90865369  0.91059193  0.08526335    -0.04200
C2404       C  0.93114222  0.90403685  0.07813776     0.02800
C2405       C  0.95045576  0.95517617  0.04156150     0.09700
C2406       C  0.90339319  0.96642559  0.05208371     0.35600
C2407       C  0.93986713  0.88114287  0.08201159     0.39000
C2408       C  0.94735003  0.95608359  0.01776781    -0.04600
C2409       C  0.96182740  0.96966734  0.00367932     0.02600
C2410       C  0.97990002  0.98359367  0.01317993    -0.04200
C2411       C  0.97997519  0.98473723  0.03798514    -0.00400
C2412       C  0.96671719  0.96955953  0.05154073    -0.03000
C2413       C  0.92965442  0.94197244  0.00758711     0.36300
C2414       C  0.99017009  0.00330654  0.05069493     0.39900
C2415       C  0.95864150  0.96706220  0.97924204     0.39000
C2416       C  0.96900279  0.96946651  0.07632700     0.36000
C2417       C  0.96854016  0.91275183  0.06011775     0.36700
C2418       C  0.87474730  0.93546103  0.07564901     0.39900
N2419       N  0.95478523  0.96358122  0.96015249    -0.38200
N2420       N  0.91548466  0.93080389  0.99954102    -0.39700
N2421       N  0.99702920  0.01832826  0.06154198    -0.37500
N2422       N  0.97084171  0.96934416  0.09603654    -0.39900
N2423       N  0.89594174  0.98338543  0.04498359    -0.39700
N2424       N  0.85543288  0.93994973  0.07655832    -0.37300
N2425       N  0.94772360  0.86309471  0.08442951    -0.38300
N2426       N  0.98741265  0.90744425  0.05698588    -0.40000
C2427       C  0.78767271  0.09208030  0.78387142    -0.04900
C2428       C  0.79440913  0.07721891  0.80176325     0.09200
C2429       C  0.78498184  0.05499832  0.80292787    -0.02300
C2430       C  0.76953806  0.04750319  0.78597051    -0.00600
C2431       C  0.76239306  0.06261123  0.76851800    -0.04200
C2432       C  0.77118409  0.08504158  0.76778057     0.02800
C2433       C  0.81104212  0.08525839  0.81961991     0.09700
C2434       C  0.79086099  0.04001940  0.82182595     0.35600
C2435       C  0.76258576  0.10117895  0.75097746     0.39000
C2436       C  0.80439283  0.10215987  0.83550422    -0.04600
C2437       C  0.82028314  0.11094104  0.85142182     0.02600
C2438       C  0.84285595  0.10161143  0.85295543    -0.04200
C2439       C  0.84945415  0.08481440  0.83646568    -0.00400
C2440       C  0.83367834  0.07681983  0.81999302    -0.03000
C2441       C  0.78093502  0.11062963  0.83537386     0.36300
C2442       C  0.87284929  0.07644848  0.83524408     0.39900
C2443       C  0.81298560  0.13038051  0.86499370     0.39000
C2444       C  0.84084589  0.06004820  0.80305161     0.36000
C2445       C  0.79773270  0.11466516  0.78201935     0.36700
C2446       C  0.76134674  0.02410934  0.78621443     0.39900
N2447       N  0.80629295  0.14647717  0.87448901    -0.38200
N2448       N  0.76226412  0.11737963  0.83520443    -0.39700
N2449       N  0.89135477  0.06935158  0.83406664    -0.37500
N2450       N  0.84648434  0.04662419  0.78957188    -0.39900
N2451       N  0.79549441  0.02813505  0.83698179    -0.39700
N2452       N  0.75505503  0.00535226  0.78629405    -0.37300
N2453       N  0.75544585  0.11418718  0.73784586    -0.38300
N2454       N  0.80576617  0.13268080  0.78055939    -0.40000
C2455       C  0.80726157  0.15751676  0.93189149    -0.04900
C2456       C  0.81338341  0.18022741  0.93742613     0.09200
C2457       C  0.83641238  0.18711312  0.93482611    -0.02300
C2458       C  0.85277557  0.17191783  0.92532767    -0.00600
C2459       C  0.84595008  0.15025354  0.91726875    -0.04200
C2460       C  0.82369232  0.14239519  0.92237937     0.02800
C2461       C  0.79560106  0.19691491  0.94590486     0.09700
C2462       C  0.84314394  0.20996332  0.94163115     0.35600
C2463       C  0.81779105  0.11869202  0.91803310     0.39000
C2464       C  0.78806172  0.19628697  0.96889152    -0.04600
C2465       C  0.77108067  0.21181622  0.97668219     0.02600
C2466       C  0.76151734  0.22806807  0.96153121    -0.04200
C2467       C  0.76938368  0.22899880  0.93867699    -0.00400
C2468       C  0.78631473  0.21346197  0.93088031    -0.03000
C2469       C  0.79794482  0.17971351  0.98451988     0.36300
C2470       C  0.75971388  0.24573952  0.92306864     0.39900
C2471       C  0.76386810  0.21148968  0.00044223     0.39000
C2472       C  0.79408225  0.21434362  0.90730023     0.36000
C2473       C  0.78392738  0.14989989  0.93547267     0.36700
C2474       C  0.87671670  0.17834781  0.92419572     0.39900
N2475       N  0.75823571  0.21132771  0.01944625    -0.38200
N2476       N  0.80588036  0.16642319  0.99689906    -0.39700
N2477       N  0.75194301  0.25916238  0.91072690    -0.37500
N2478       N  0.80034701  0.21506300  0.88850750    -0.39900
N2479       N  0.84841987  0.22826311  0.94697922    -0.39700
N2480       N  0.89585839  0.18333854  0.92335081    -0.37300
N2481       N  0.81309457  0.09978621  0.91454972    -0.38300
N2482       N  0.76529755  0.14383447  0.93834019    -0.40000
C2483       C  0.94480561  0.21186654  0.80272643    -0.04900
C2484       C  0.92290521  0.20184700  0.80114878     0.09200
C2485       C  0.90882356  0.20709709  0.78222496    -0.02300
C2486       C  0.91643710  0.22247289  0.76518266    -0.00600
C2487       C  0.93821077  0.23277460  0.76692762    -0.04200
C2488       C  0.95243903  0.22724614  0.78568920     0.02800
C2489       C  0.91458692  0.18570598  0.81939921     0.09700
C2490       C  0.88640019  0.19669731  0.78038558     0.35600
C2491       C  0.97521317  0.23694147  0.78715815     0.39000
C2492       C  0.89862291  0.19319102  0.83591625    -0.04600
C2493       C  0.88979264  0.17778600  0.85239564     0.02600
C2494       C  0.89772735  0.15470743  0.85335663    -0.04200
C2495       C  0.91373608  0.14734433  0.83637323    -0.00400
C2496       C  0.92205748  0.16276252  0.81965892    -0.03000
C2497       C  0.89140196  0.21702754  0.83600801     0.36300
C2498       C  0.92117592  0.12366158  0.83511119     0.39900
C2499       C  0.87205016  0.18616115  0.86762539     0.39000
C2500       C  0.93832775  0.15499796  0.80245995     0.36000
C2501       C  0.95944510  0.20636429  0.82197293     0.36700
C2502       C  0.90153891  0.22824115  0.74620418     0.39900
N2503       N  0.85735451  0.19375092  0.87862469    -0.38200
N2504       N  0.88573698  0.23604489  0.83612636    -0.39700
N2505       N  0.92762550  0.10493287  0.83394308    -0.37500
N2506       N  0.95137131  0.14892549  0.78876676    -0.39900
N2507       N  0.86849360  0.18841472  0.77900478    -0.39700
N2508       N  0.88968971  0.23287930  0.73104331    -0.37300
N2509       N  0.99341067  0.24462386  0.78824477    -0.38300
N2510       N  0.97112604  0.20187855  0.83730705    -0.40000
C2511       C  0.94427312  0.07870923  0.93058491    -0.04900
C2512       C  0.93546227  0.05769863  0.93840810     0.09200
C2513       C  0.91216210  0.05286510  0.93456285    -0.02300
C2514       C  0.89789978  0.06867742  0.92279723    -0.00600
C2515       C  0.90700213  0.08925364  0.91320634    -0.04200
C2516       C  0.92991394  0.09492849  0.91957119     0.02800
C2517       C  0.95017443  0.04162953  0.95259184     0.09700
C2518       C  0.90281494  0.03144044  0.94289558     0.35600
C2519       C  0.93818183  0.11824836  0.91804702     0.39000
C2520       C  0.94823651  0.04137824  0.97649928    -0.04600
C2521       C  0.96237067  0.02690486  0.99012630     0.02600
C2522       C  0.97994618  0.01229450  0.98019125    -0.04200
C2523       C  0.97931627  0.01113975  0.95532556    -0.00400
C2524       C  0.96536267  0.02622840  0.94212842    -0.03000
C2525       C  0.93192570  0.05696444  0.98724193     0.36300
C2526       C  0.99018535  0.99317049  0.94207956     0.39900
C2527       C  0.95880222  0.02888017  0.01457832     0.39000
C2528       C  0.96576764  0.02529004  0.91724826     0.36000
C2529       C  0.96829405  0.08387380  0.93401453     0.36700
C2530       C  0.87345177  0.06439835  0.92261002     0.39900
N2531       N  0.95415427  0.03190781  0.03360602    -0.38200
N2532       N  0.91895655  0.06941097  0.99572386    -0.39700
N2533       N  0.99786415  0.97911112  0.93035572    -0.37500
N2534       N  0.96595420  0.02449530  0.89746283    -0.39900
N2535       N  0.89546190  0.01430306  0.94951893    -0.39700
N2536       N  0.85395518  0.06090107  0.92268115    -0.37300
N2537       N  0.94496638  0.13682001  0.91715398    -0.38300
N2538       N  0.98748994  0.08816080  0.93620366    -0.40000
C2539       C  0.21683438  0.20364923  0.08477641    -0.04900
C2540       C  0.19737684  0.19667522  0.07234909     0.09200
C2541       C  0.19273039  0.20676953  0.05089389    -0.02300
C2542       C  0.20691939  0.22433045  0.04232632    -0.00600
C2543       C  0.22590145  0.23191827  0.05513676    -0.04200
C2544       C  0.23103388  0.22121583  0.07622903     0.02800
C2545       C  0.18109865  0.17948956  0.08230871     0.09700
C2546       C  0.17316799  0.19917696  0.03773536     0.35600
C2547       C  0.25045991  0.22884135  0.08958000     0.39000
C2548       C  0.16559136  0.18612247  0.09962858    -0.04600
C2549       C  0.14934411  0.17043397  0.10828163     0.02600
C2550       C  0.14798202  0.14790709  0.09917639    -0.04200
C2551       C  0.16508457  0.14087900  0.08324527    -0.00400
C2552       C  0.18119441  0.15666782  0.07458632    -0.03000
C2553       C  0.16641382  0.20930798  0.10856787     0.36300
C2554       C  0.16743307  0.11699759  0.07690888     0.39900
C2555       C  0.13497384  0.17781756  0.12710474     0.39000
C2556       C  0.19812188  0.14937958  0.05783163     0.36000
C2557       C  0.22202934  0.19290121  0.10653651     0.36700
C2558       C  0.20225096  0.23424640  0.02006991     0.39900
N2559       N  0.12463648  0.18448949  0.14267488    -0.38200
N2560       N  0.16724091  0.22774654  0.11575544    -0.39700
N2561       N  0.16994005  0.09801083  0.07182439    -0.37500
N2562       N  0.21159418  0.14356350  0.04444418    -0.39900
N2563       N  0.15761337  0.19298354  0.02723681    -0.39700
N2564       N  0.19853527  0.24204494  0.00225681    -0.37300
N2565       N  0.26595643  0.23495689  0.10021240    -0.38300
N2566       N  0.22609167  0.18434392  0.12392552    -0.40000
C2567       C  0.16418978  0.09091008  0.18767799    -0.04900
C2568       C  0.17997938  0.07433580  0.18000141     0.09200
C2569       C  0.17835706  0.06597546  0.15751199    -0.02300
C2570       C  0.16102860  0.07410908  0.14265305    -0.00600
C2571       C  0.14497033  0.09112098  0.15006194    -0.04200
C2572       C  0.14712083  0.09960928  0.17284370     0.02800
C2573       C  0.19871845  0.06611227  0.19560429     0.09700
C2574       C  0.19488947  0.04908226  0.14958456     0.35600
C2575       C  0.13250124  0.11769630  0.18159352     0.39000
C2576       C  0.19554426  0.04642759  0.20920077    -0.04600
C2577       C  0.21267384  0.03938181  0.22476227     0.02600
C2578       C  0.23332955  0.05185788  0.22670184    -0.04200
C2579       C  0.23667384  0.07129461  0.21260012    -0.00400
C2580       C  0.21939234  0.07841685  0.19723057    -0.03000
C2581       C  0.17455296  0.03343663  0.20711599     0.36300
C2582       C  0.25753881  0.08453867  0.21442332     0.39900
C2583       C  0.20917506  0.01893711  0.23840260     0.39000
C2584       C  0.22271064  0.09861562  0.18318451     0.36000
C2585       C  0.16565891  0.09910473  0.21109693     0.36700
C2586       C  0.16065891  0.06521305  0.11949445     0.39900
N2587       N  0.20638097  0.00264475  0.24931220    -0.38200
N2588       N  0.15781567  0.02306947  0.20532890    -0.39700
N2589       N  0.27419430  0.09510010  0.21583513    -0.37500
N2590       N  0.22526286  0.11473500  0.17196410    -0.39900
N2591       N  0.20811694  0.03564249  0.14330325    -0.39700
N2592       N  0.16041204  0.05755289  0.10123389    -0.37300
N2593       N  0.12206422  0.13264064  0.18949017    -0.38300
N2594       N  0.16680802  0.10554453  0.22978186    -0.40000
C2595       C  0.06569895  0.15386419  0.18336782    -0.04900
C2596       C  0.06272095  0.17692873  0.17668273     0.09200
C2597       C  0.06733935  0.18323578  0.15379727    -0.02300
C2598       C  0.07666063  0.16704134  0.13831991    -0.00600
C2599       C  0.08220875  0.14473997  0.14589201    -0.04200
C2600       C  0.07492269  0.13770675  0.16782272     0.02800
C2601       C  0.05542802  0.19462439  0.19396304     0.09700
C2602       C  0.06285557  0.20649154  0.14634077     0.35600
C2603       C  0.07679446  0.11382778  0.17436937     0.39000
C2604       C  0.07200534  0.20866638  0.20446169    -0.04600
C2605       C  0.06542566  0.22474256  0.22135632     0.02600
C2606       C  0.04225479  0.22672558  0.22809521    -0.04200
C2607       C  0.02565373  0.21279497  0.21754326    -0.00400
C2608       C  0.03218533  0.19693756  0.20040102    -0.03000
C2609       C  0.09592967  0.20630036  0.19808988     0.36300
C2610       C  0.00179840  0.21497492  0.22421841     0.39900
C2611       C  0.08258145  0.23892928  0.23219799     0.39000
C2612       C  0.01500705  0.18304715  0.18926272     0.36000
C2613       C  0.05978403  0.14691781  0.20644855     0.36700
C2614       C  0.08072788  0.17333036  0.11464579     0.39900
N2615       N  0.09624835  0.25024798  0.24088025    -0.38200
N2616       N  0.11502338  0.20440197  0.19302345    -0.39700
N2617       N  0.98278567  0.21677863  0.22961987    -0.37500
N2618       N  0.00131459  0.17197291  0.18031421    -0.39900
N2619       N  0.05927911  0.22507312  0.14042360    -0.39700
N2620       N  0.08400569  0.17826682  0.09574255    -0.37300
N2621       N  0.07831550  0.09482418  0.17978018    -0.38300
N2622       N  0.05502000  0.14144120  0.22488178    -0.40000
C2623       C  0.07870912  0.06653984  0.04621152    -0.04900
C2624       C  0.06045728  0.05396239  0.05563332     0.09200
C2625       C  0.05705185  0.05463850  0.07949506    -0.02300
C2626       C  0.07028768  0.06930570  0.09349321    -0.00600
C2627       C  0.08784059  0.08354749  0.08407128    -0.04200
C2628       C  0.09295651  0.08026100  0.06026077     0.02800
C2629       C  0.04499517  0.03994881  0.04026865     0.09700
C2630       C  0.04012099  0.03986291  0.08999066     0.35600
C2631       C  0.11385029  0.08844425  0.04982259     0.39000
C2632       C  0.04737124  0.01610153  0.03871199    -0.04600
C2633       C  0.03219741  0.00288923  0.02507444     0.02600
C2634       C  0.01461736  0.01339056  0.01097619    -0.04200
C2635       C  0.01501515  0.03821774  0.01078357    -0.00400
C2636       C  0.02872797  0.05083832  0.02636377    -0.03000
C2637       C  0.06541212  0.00499987  0.05180240     0.36300
C2638       C  0.00386768  0.05209079  0.99359475     0.39900
C2639       C  0.03427420  0.97830815  0.02776997     0.39000
C2640       C  0.02649439  0.07562451  0.02782554     0.36000
C2641       C  0.08321974  0.06479436  0.02179222     0.36700
C2642       C  0.06581956  0.06904183  0.11794669     0.39900
N2643       N  0.03727794  0.95905646  0.03143730    -0.38200
N2644       N  0.07977777  0.99618073  0.06223171    -0.39700
N2645       N  0.99600338  0.06435969  0.98017747    -0.37500
N2646       N  0.02478867  0.09533708  0.02903357    -0.39900
N2647       N  0.02713232  0.02801168  0.09907397    -0.39700
N2648       N  0.06195250  0.06861778  0.13737055    -0.37300
N2649       N  0.13025425  0.09437785  0.04040634    -0.38300
N2650       N  0.08672742  0.06346676  0.00233396    -0.40000
loop_ 
_geom_bond_atom_site_label_1 
_geom_bond_atom_site_label_2 
_geom_bond_distance 
_geom_bond_site_symmetry_2 
_ccdc_geom_bond_type 
C1            C2   1.539       .  S
C1            C7   1.546       .  S
C1            C5   1.556       .  S
C1         C2627   1.576       .  S
C2            H9   1.086       .  S
C2            C3   1.362       .  D
C3            C4   1.553       .  S
C3         C2599   1.494       .  S
C4            C8   1.543       .  S
C4            C6   1.536       .  S
C4           H10   1.102       .  S
C5           H11   1.077       .  S
C5            C6   1.372       .  D
C6         C2550   1.514       .  S
C7           H12   1.085       .  S
C7            C8   1.374       .  D
C8         C2571   1.523       .  S
C13          C14   1.553       .  S
C13          C19   1.553       .  S
C13          C17   1.527       .  S
C13        C2515   1.569       .  S
C14          H21   1.080       .  S
C14          C15   1.373       .  D
C15          C16   1.542       .  S
C15        C2494   1.519       .  S
C16          C20   1.543       .  S
C16          C18   1.552       .  S
C16          H22   1.102       .  S
C17          H23   1.086       .  S
C17          C18   1.358       .  D
C18        C2459   1.492       .  S
C19          H24   1.083       .  S
C19          C20   1.378       .  D
C20        C2438   1.521       .  S
C25          C26   1.543       .  S
C25          C31   1.540       .  S
C25          C29   1.555       .  S
C25        C2403   1.569       .  S
C26          H33   1.084       .  S
C26          C27   1.365       .  D
C27          C28   1.540       .  S
C27        C2347   1.500       .  S
C28          C32   1.544       .  S
C28          C30   1.540       .  S
C28          H34   1.109       .  S
C29          H35   1.083       .  S
C29          C30   1.370       .  D
C30        C2375   1.502       .  S
C31          H36   1.086       .  S
C31          C32   1.372       .  D
C32        C2319   1.510       .  S
C37          C38   1.550       .  S
C37          C43   1.544       .  S
C37          C41   1.549       .  S
C37        C2291   1.575       .  S
C38          H45   1.081       .  S
C38          C39   1.366       .  D
C39          C40   1.539       .  S
C39        C2214   1.500       .  S
C40          C44   1.545       .  S
C40          C42   1.540       .  S
C40          H46   1.109       .  S
C41          H47   1.084       .  S
C41          C42   1.369       .  D
C42        C2235   1.505       .  S
C43          H48   1.085       .  S
C43          C44   1.375       .  D
C44        C2263   1.517       .  S
C49        C2298   1.623   1_655  S
C49        C2410   1.618   1_556  S
C49        C2522   1.628   1_565  S
C49        C2634   1.623   1_666  S
C50          N51   1.362       .  A
C50          N55   1.361       .  A
C50        C2130   1.483       .  S
N51          C52   1.360       .  A
C52          N53   1.356       .  A
C52        C2158   1.489       .  S
N53          C54   1.354       .  A
C54          N55   1.358       .  A
C54        C2179   1.479       .  S
C56          N57   1.364       .  A
C56          N61   1.362       .  A
C56        C2039   1.489       .  S
N57          C58   1.361       .  A
C58          N59   1.353       .  A
C58        C2095   1.492       .  S
N59          C60   1.350       .  A
C60          N61   1.356       .  A
C60        C2074   1.473       .  S
C62          N63   1.362       .  A
C62          N67   1.365       .  A
C62        C1962   1.499       .  S
N63          C64   1.357       .  A
C64          N65   1.353       .  A
C64        C1983   1.477       .  S
N65          C66   1.356       .  A
C66          N67   1.361       .  A
C66        C2011   1.493       .  S
C68          N69   1.363       .  A
C68          N73   1.366       .  A
C68        C1871   1.483       .  S
N69          C70   1.357       .  A
C70          N71   1.350       .  A
C70        C1899   1.488       .  S
N71          C72   1.352       .  A
C72          N73   1.363       .  A
C72        C1934   1.505       .  S
O74         Ni82   1.910       .  S
O74          C84   1.279       .  A
O75         Ni82   1.913   1_554  S
O75          C85   1.280       .  A
O76         Ni82   1.926       .  S
O76          C86   1.284       .  A
O77         Ni82   1.926       .  S
O77          C87   1.284       .  A
O78         Ni83   1.907       .  S
O78          C87   1.279       .  A
O79         Ni83   1.907       .  S
O79          C86   1.279       .  A
O80         Ni83   1.925   1_554  S
O80          C85   1.284       .  A
O81         Ni83   1.925       .  S
O81          C84   1.283       .  A
Ni82        Ni83   2.383       .  S
C84        C2102   1.484       .  S
C85        C1990   1.514       .  S
C86        C1843   1.492       .  S
C87        C1815   1.487   1_556  S
O88         Ni96   1.914   1_556  S
O88          C98   1.280       .  A
O89         Ni96   1.909       .  S
O89          C99   1.279       .  A
O90         Ni96   1.929       .  S
O90         C100   1.284       .  A
O91         Ni96   1.926   1_556  S
O91         C101   1.283       .  A
O92         Ni97   1.918   1_556  S
O92         C101   1.280       .  A
O93         Ni97   1.916       .  S
O93         C100   1.281       .  A
O94         Ni97   1.923       .  S
O94          C99   1.283       .  A
O95         Ni97   1.921   1_556  S
O95          C98   1.282       .  A
Ni96        Ni97   2.388       .  S
C98        C1731   1.483       .  S
C99        C1906   1.487       .  S
C100       C1759   1.495       .  S
C101       C1794   1.487       .  S
C102        N103   1.364       .  A
C102        N107   1.365       .  A
C102       C2326   1.495       .  S
N103        C104   1.360       .  A
C104        N105   1.354       .  A
C104       C1822   1.487       .  S
N105        C106   1.354       .  A
C106        N107   1.361       .  A
C106       C1766   1.483       .  S
C108        N109   1.365       .  A
C108        N113   1.365       .  A
C108       C1675   1.489       .  S
N109        C110   1.362       .  A
C110        N111   1.352       .  A
C110       C1710   1.494       .  S
N111        C112   1.353       .  A
C112        N113   1.362       .  A
C112       C1738   1.496       .  S
C114        N115   1.365       .  A
C114        N119   1.363       .  A
C114       C1591   1.502       .  S
N115        C116   1.361       .  A
C116        N117   1.355       .  A
C116       C1619   1.482       .  S
N117        C118   1.354       .  A
C118        N119   1.359       .  A
C118       C1654   1.483       .  S
O120       Ni128   1.907       .  S
O120        C130   1.279       .  A
O121       Ni128   1.907   1_455  S
O121        C131   1.279       .  A
O122       Ni128   1.926   1_455  S
O122        C132   1.284       .  A
O123       Ni128   1.926       .  S
O123        C133   1.283       .  A
O124       Ni129   1.909       .  S
O124        C133   1.278       .  A
O125       Ni129   1.914   1_455  S
O125        C132   1.279       .  A
O126       Ni129   1.933   1_455  S
O126        C131   1.286       .  A
O127       Ni129   1.934       .  S
O127        C130   1.286       .  A
Ni128      Ni129   2.385       .  S
C130       C1542   1.497       .  S
C131       C1563   1.504       .  S
C132       C1626   1.489       .  S
C133       C2151   1.480       .  S
O134       Ni142   1.912   1_455  S
O134        C144   1.280       .  A
O135       Ni142   1.912       .  S
O135        C145   1.279       .  A
O136       Ni142   1.917   1_455  S
O136        C146   1.282       .  A
O137       Ni142   1.914       .  S
O137        C147   1.282       .  A
O138       Ni143   1.918       .  S
O138        C147   1.281       .  A
O139       Ni143   1.921   1_455  S
O139        C146   1.282       .  A
O140       Ni143   1.920       .  S
O140        C145   1.282       .  A
O141       Ni143   1.923   1_455  S
O141        C144   1.282       .  A
Ni142      Ni143   2.388       .  S
C144       C1451   1.484       .  S
C145       C1703   1.480       .  S
C146       C1507   1.495       .  S
C147       C1479   1.490       .  S
C148        N149   1.363       .  A
C148        N153   1.364       .  A
C148       C2207   1.491       .  S
N149        C150   1.361       .  A
C150        N151   1.355       .  A
C150       C1514   1.494       .  S
N151        C152   1.355       .  A
C152        N153   1.361       .  A
C152       C1570   1.483       .  S
C154        N155   1.364       .  A
C154        N159   1.365       .  A
C154       C1395   1.496       .  S
N155        C156   1.360       .  A
C156        N157   1.352       .  A
C156       C1458   1.483       .  S
N157        C158   1.353       .  A
C158        N159   1.361       .  A
C158       C1423   1.493       .  S
C160        N161   1.362       .  A
C160        N165   1.362       .  A
C160       C1318   1.481       .  S
N161        C162   1.358       .  A
C162        N163   1.353       .  A
C162       C1367   1.481       .  S
N163        C164   1.353       .  A
C164        N165   1.358       .  A
C164       C1346   1.479       .  S
O166       Ni174   1.914       .  S
O166        C176   1.280       .  A
O167       Ni174   1.909   1_545  S
O167        C177   1.280       .  A
O168       Ni174   1.919       .  S
O168        C178   1.282       .  A
O169       Ni174   1.919   1_545  S
O169        C179   1.281       .  A
O170       Ni175   1.910   1_545  S
O170        C179   1.279       .  A
O171       Ni175   1.911       .  S
O171        C178   1.280       .  A
O172       Ni175   1.918   1_545  S
O172        C177   1.282       .  A
O173       Ni175   1.912       .  S
O173        C176   1.281       .  A
Ni174      Ni175   2.382       .  S
C176       C1255   1.489       .  S
C177       C1283   1.490       .  S
C178       C2186   1.511       .  S
C179       C1339   1.479       .  S
O180       Ni188   1.901   1_545  S
O180        C190   1.278       .  A
O181       Ni188   1.905       .  S
O181        C191   1.278       .  A
O182       Ni188   1.921       .  S
O182        C192   1.283       .  A
O183       Ni188   1.925   1_545  S
O183        C193   1.283       .  A
O184       Ni189   1.912   1_545  S
O184        C193   1.279       .  A
O185       Ni189   1.917       .  S
O185        C192   1.280       .  A
O186       Ni189   1.927       .  S
O186        C191   1.284       .  A
O187       Ni189   1.922   1_545  S
O187        C190   1.283       .  A
Ni188      Ni189   2.385       .  S
C190       C1171   1.478       .  S
C191       C2067   1.508       .  S
C192       C1227   1.490       .  S
C193       C1199   1.484       .  S
C194        N195   1.362       .  A
C194        N199   1.362       .  A
C194       C2431   1.482       .  S
N195        C196   1.359       .  A
C196        N197   1.353       .  A
C196       C1290   1.482       .  S
N197        C198   1.353       .  A
C198        N199   1.360       .  A
C198       C1206   1.485       .  S
C200        N201   1.360       .  A
C200        N205   1.360       .  A
C200       C1115   1.478       .  S
N201        C202   1.359       .  A
C202        N203   1.355       .  A
C202       C1178   1.486       .  S
N203        C204   1.352       .  A
C204        N205   1.355       .  A
C204       C1143   1.474       .  S
O206       Ni214   1.918   1_554  S
O206        C216   1.280       .  A
O207       Ni214   1.918       .  S
O207        C217   1.280       .  A
O208       Ni214   1.921       .  S
O208        C218   1.282       .  A
O209       Ni214   1.921   1_554  S
O209        C219   1.283       .  A
O210       Ni215   1.918       .  S
O210        C219   1.281   1_556  A
O211       Ni215   1.914       .  S
O211        C218   1.281       .  A
O212       Ni215   1.921       .  S
O212        C217   1.282       .  A
O213       Ni215   1.926   1_554  S
O213        C216   1.282       .  A
Ni214      Ni215   2.389       .  S
C216       C1031   1.484       .  S
C217       C1430   1.484       .  S
C218       C1094   1.486       .  S
C219       C1059   1.493       .  S
C220        N221   1.364       .  A
C220        N225   1.362       .  A
C220       C2242   1.494       .  S
N221        C222   1.362       .  A
C222        N223   1.355       .  A
C222       C1087   1.499       .  S
N223        C224   1.352       .  A
C224        N225   1.357       .  A
C224       C1850   1.476       .  S
O226       Ni234   1.911   1_455  S
O226        C236   1.280       .  A
O227       Ni234   1.913       .  S
O227        C237   1.280       .  A
O228       Ni234   1.922   1_455  S
O228        C238   1.283       .  A
O229       Ni234   1.921       .  S
O229        C239   1.282       .  A
O230       Ni235   1.917       .  S
O230        C239   1.280       .  A
O231       Ni235   1.920   1_455  S
O231        C238   1.281       .  A
O232       Ni235   1.919       .  S
O232        C237   1.282       .  A
O233       Ni235   1.921   1_455  S
O233        C236   1.282       .  A
Ni234      Ni235   2.389       .  S
C236        C975   1.483       .  S
C237       C1003   1.485       .  S
C238        C947   1.491       .  S
C239       C1927   1.482       .  S
C240        N241   1.364       .  A
C240        N245   1.363       .  A
C240       C2382   1.488       .  S
N241        C242   1.361       .  A
C242        N243   1.353       .  A
C242       C1535   1.487       .  S
N243        C244   1.353       .  A
C244        N245   1.359       .  A
C244       C1010   1.482       .  S
C246        N247   1.368       .  A
C246        N251   1.366       .  A
C246        C919   1.492       .  S
N247        C248   1.364       .  A
C248        N249   1.352       .  A
C248       C1038   1.506       .  S
N249        C250   1.352       .  A
C250        N251   1.362       .  A
C250        C954   1.499       .  S
O252       Ni260   1.919   1_554  S
O252        C262   1.281       .  A
O253       Ni260   1.919       .  S
O253        C263   1.281       .  A
O254       Ni260   1.930       .  S
O254        C264   1.284   1_556  A
O255       Ni260   1.927       .  S
O255        C265   1.284       .  A
O256       Ni261   1.910       .  S
O256        C265   1.279       .  A
O257       Ni261   1.906       .  S
O257        C264   1.278   1_556  A
O258       Ni261   1.918       .  S
O258        C263   1.282       .  A
O259       Ni261   1.924   1_554  S
O259        C262   1.283       .  A
Ni260      Ni261   2.379       .  S
C262        C835   1.491       .  S
C263       C1150   1.508       .  S
C264        C870   1.485       .  S
C265        C891   1.510       .  S
C266        N267   1.363       .  A
C266        N271   1.364       .  A
C266       C2466   1.487       .  S
N267        C268   1.360       .  A
C268        N269   1.353       .  A
C268        C898   1.480       .  S
N269        C270   1.354       .  A
C270        N271   1.361       .  A
C270       C1787   1.490       .  S
O272       Ni280   1.916   1_545  S
O272        C282   1.280       .  A
O273       Ni280   1.909       .  S
O273        C283   1.279       .  A
O274       Ni280   1.915       .  S
O274        C284   1.281       .  A
O275       Ni280   1.921   1_545  S
O275        C285   1.282       .  A
O276       Ni281   1.915   1_545  S
O276        C285   1.281       .  A
O277       Ni281   1.918       .  S
O277        C284   1.280       .  A
O278       Ni281   1.921       .  S
O278        C283   1.282       .  A
O279       Ni281   1.921   1_545  S
O279        C282   1.283       .  A
Ni280      Ni281   2.380       .  S
C282        C779   1.491       .  S
C283        C807   1.509       .  S
C284       C2018   1.487       .  S
C285        C758   1.501       .  S
C286        N287   1.361       .  A
C286        N291   1.362       .  A
C286       C2354   1.496       .  S
N287        C288   1.355       .  A
C288        N289   1.353       .  A
C288        C814   1.472       .  S
N289        C290   1.354       .  A
C290        N291   1.360       .  A
C290       C1262   1.477       .  S
C292        N293   1.366       .  A
C292        N297   1.359       .  A
C292        C730   1.484       .  S
N293        C294   1.365       .  A
C294        N295   1.356       .  A
C294        C842   1.498       .  S
N295        C296   1.352       .  A
C296        N297   1.354       .  A
C296        C751   1.474       .  S
O298       Ni306   1.912       .  S
O298        C308   1.280       .  A
O299       Ni306   1.909   1_545  S
O299        C309   1.279       .  A
O300       Ni306   1.920       .  S
O300        C310   1.282       .  A
O301       Ni306   1.920   1_545  S
O301        C311   1.282       .  A
O302       Ni307   1.915   1_545  S
O302        C311   1.280       .  A
O303       Ni307   1.917       .  S
O303        C310   1.280       .  A
O304       Ni307   1.925       .  S
O304        C309   1.283   1_565  A
O305       Ni307   1.924       .  S
O305        C308   1.284       .  A
Ni306      Ni307   2.382       .  S
C308        C702   1.494       .  S
C309        C667   1.514       .  S
C310       C1647   1.488       .  S
C311        C639   1.484       .  S
C312        N313   1.365       .  A
C312        N317   1.363       .  A
C312       C2270   1.496       .  S
N313        C314   1.361       .  A
C314        N315   1.355       .  A
C314       C1234   1.486       .  S
N315        C316   1.355       .  A
C316        N317   1.359       .  A
C316        C695   1.487       .  S
O318       Ni326   1.917       .  S
O318        C328   1.281       .  A
O319       Ni326   1.917   1_455  S
O319        C329   1.281       .  A
O320       Ni326   1.922   1_455  S
O320        C330   1.282       .  A
O321       Ni326   1.920       .  S
O321        C331   1.282       .  A
O322       Ni327   1.911       .  S
O322        C331   1.279       .  A
O323       Ni327   1.914   1_455  S
O323        C330   1.280       .  A
O324       Ni327   1.924   1_455  S
O324        C329   1.283       .  A
O325       Ni327   1.925       .  S
O325        C328   1.283       .  A
Ni326      Ni327   2.382       .  S
C328        C618   1.492       .  S
C329        C583   1.517       .  S
C330        C555   1.489       .  S
C331       C1374   1.487       .  S
C332        N333   1.365       .  A
C332        N337   1.362       .  A
C332       C2487   1.489       .  S
N333        C334   1.362       .  A
C334        N335   1.354       .  A
C334        C611   1.487       .  S
N335        C336   1.354       .  A
C336        N337   1.359       .  A
C336       C1486   1.485       .  S
C338        N339   1.365       .  A
C338        N343   1.367       .  A
C338        C527   1.502       .  S
N339        C340   1.361       .  A
C340        N341   1.351       .  A
C340        C562   1.487       .  S
N341        C342   1.352       .  A
C342        N343   1.361       .  A
C342        C646   1.487       .  S
C344        N345   1.364       .  A
C344        N349   1.363       .  A
C344       C2606   1.487       .  S
N345        C346   1.361       .  A
C346        N347   1.351       .  A
C346        C590   1.480       .  S
N347        C348   1.351       .  A
C348        N349   1.360       .  A
C348        C982   1.480       .  S
C350        N351   1.365       .  A
C350        N355   1.364       .  A
C350       C2578   1.496       .  S
N351        C352   1.361       .  A
C352        N353   1.352       .  A
C352        C786   1.483       .  S
N353        C354   1.350       .  A
C354        N355   1.359       .  A
C354        C674   1.476       .  S
C356        N357   1.362       .  A
C356        N361   1.364       .  A
C356       C2543   1.488       .  S
N357        C358   1.360       .  A
C358        N359   1.354       .  A
C358        C863   1.487       .  S
N359        C360   1.354       .  A
C360        N361   1.360       .  A
C360       C1066   1.479       .  S
C362        C363   1.547       .  S
C362        C368   1.536       .  S
C362        C366   1.551       .  S
C362        C499   1.570       .  S
C363        H370   1.084       .  S
C363        C364   1.366       .  D
C364        C365   1.539       .  S
C364       C1122   1.494       .  S
C365        C369   1.548       .  S
C365        C367   1.543       .  S
C365        H371   1.109       .  S
C366        H372   1.082       .  S
C366        C367   1.371       .  D
C367        C534   1.514       .  S
C368        H373   1.086       .  S
C368        C369   1.371       .  D
C369       C1402   1.511       .  S
C374        C375   1.562       .  S
C374        C380   1.538       .  S
C374        C378   1.544       .  S
C374        C471   1.573       .  S
C375        H382   1.088       .  S
C375        C376   1.378       .  D
C376        C377   1.535       .  S
C376       C1878   1.520       .  S
C377        C381   1.546       .  S
C377        C379   1.535       .  S
C377        H383   1.100       .  S
C378        H384   1.086       .  S
C378        C379   1.371       .  D
C379        C723   1.512       .  S
C380        H385   1.087       .  S
C380        C381   1.358       .  D
C381       C1311   1.487       .  S
C386        C387   1.543       .  S
C386        C392   1.556       .  S
C386        C390   1.546       .  S
C386        C443   1.576       .  S
C387        H394   1.086       .  S
C387        C388   1.374       .  D
C388        C389   1.544       .  S
C388       C1682   1.511       .  S
C389        C393   1.538       .  S
C389        C391   1.541       .  S
C389        H395   1.110       .  S
C390        H396   1.083       .  S
C390        C391   1.366       .  D
C391       C2046   1.504       .  S
C392        H397   1.083       .  S
C392        C393   1.371       .  D
C393       C2123   1.505       .  S
C398        C399   1.554       .  S
C398        C404   1.545       .  S
C398        C402   1.543       .  S
C398        C415   1.576       .  S
C399        H406   1.079       .  S
C399        C400   1.368       .  D
C400        C401   1.539       .  S
C400        C926   1.504       .  S
C401        C405   1.546       .  S
C401        C403   1.544       .  S
C401        H407   1.109       .  S
C402        H408   1.085       .  S
C402        C403   1.367       .  D
C403       C1955   1.504       .  S
C404        H409   1.086       .  S
C404        C405   1.374       .  D
C405       C1598   1.516       .  S
C410        C422   1.620       .  S
C410        C450   1.623       .  S
C410        C478   1.623       .  S
C410        C506   1.622       .  S
C411        C412   1.411       .  A
C411        C416   1.418       .  A
C411        C429   1.453       .  S
C412        C417   1.521       .  S
C412        C413   1.410       .  A
C413        C414   1.422       .  A
C413        C418   1.451       .  S
C414        C415   1.433       .  A
C414        C430   1.450       .  S
C415        C416   1.430       .  A
C416        C419   1.447       .  S
C417        C420   1.407       .  A
C417        C424   1.404       .  A
C418        N435   1.157       .  T
C419        N437   1.157       .  T
C420        C421   1.427       .  A
C420        C425   1.452       .  S
C421        C422   1.449       .  A
C421        C427   1.448       .  S
C422        C423   1.446       .  A
C423        C424   1.415       .  A
C423        C426   1.445       .  S
C424        C428   1.455       .  S
C425        N432   1.157       .  T
C426        N433   1.156       .  T
C427        N431   1.157       .  T
C428        N434   1.157       .  T
C429        N438   1.157       .  T
C430        N436   1.157       .  T
C439        C440   1.410       .  A
C439        C444   1.421       .  A
C439        C457   1.451       .  S
C440        C445   1.520       .  S
C440        C441   1.409       .  A
C441        C442   1.419       .  A
C441        C446   1.452       .  S
C442        C443   1.433       .  A
C442        C458   1.450       .  S
C443        C444   1.429       .  A
C444        C447   1.447       .  S
C445        C448   1.404       .  A
C445        C452   1.401       .  A
C446        N463   1.157       .  T
C447        N465   1.156       .  T
C448        C449   1.424       .  A
C448        C453   1.454       .  S
C449        C450   1.449       .  A
C449        C455   1.449       .  S
C450        C451   1.453       .  A
C451        C452   1.425       .  A
C451        C454   1.447       .  S
C452        C456   1.455       .  S
C453        N460   1.157       .  T
C454        N461   1.157       .  T
C455        N459   1.157       .  T
C456        N462   1.157       .  T
C457        N466   1.157       .  T
C458        N464   1.157       .  T
C467        C468   1.407       .  A
C467        C472   1.417       .  A
C467        C485   1.450       .  S
C468        C473   1.517       .  S
C468        C469   1.409       .  A
C469        C470   1.422       .  A
C469        C474   1.453       .  S
C470        C471   1.431       .  A
C470        C486   1.444       .  S
C471        C472   1.431       .  A
C472        C475   1.451       .  S
C473        C476   1.401       .  A
C473        C480   1.402       .  A
C474        N491   1.157       .  T
C475        N493   1.157       .  T
C476        C477   1.423       .  A
C476        C481   1.456       .  S
C477        C478   1.452       .  A
C477        C483   1.446       .  S
C478        C479   1.450       .  A
C479        C480   1.424       .  A
C479        C482   1.448       .  S
C480        C484   1.453       .  S
C481        N488   1.157       .  T
C482        N489   1.157       .  T
C483        N487   1.157       .  T
C484        N490   1.157       .  T
C485        N494   1.157       .  T
C486        N492   1.157       .  T
C495        C496   1.407       .  A
C495        C500   1.417       .  A
C495        C513   1.453       .  S
C496        C501   1.513       .  S
C496        C497   1.408       .  A
C497        C498   1.419       .  A
C497        C502   1.449       .  S
C498        C499   1.431       .  A
C498        C514   1.450       .  S
C499        C500   1.431       .  A
C500        C503   1.447       .  S
C501        C504   1.399       .  A
C501        C508   1.402       .  A
C502        N519   1.157       .  T
C503        N521   1.156       .  T
C504        C505   1.420       .  A
C504        C509   1.455       .  S
C505        C506   1.450       .  A
C505        C511   1.444       .  S
C506        C507   1.450       .  A
C507        C508   1.424       .  A
C507        C510   1.449       .  S
C508        C512   1.453       .  S
C509        N516   1.157       .  T
C510        N517   1.157       .  T
C511        N515   1.156       .  T
C512        N518   1.157       .  T
C513        N522   1.157       .  T
C514        N520   1.157       .  T
C523        C524   1.410       .  A
C523        C528   1.413       .  A
C523        C541   1.451       .  S
C524        C529   1.505       .  S
C524        C525   1.411       .  A
C525        C526   1.416       .  A
C525        C530   1.450       .  S
C526        C527   1.420       .  A
C526        C542   1.451       .  S
C527        C528   1.419       .  A
C528        C531   1.451       .  S
C529        C532   1.409       .  A
C529        C536   1.409       .  A
C530        N547   1.157       .  T
C531        N549   1.157       .  T
C532        C533   1.415       .  A
C532        C537   1.451       .  S
C533        C534   1.424       .  A
C533        C539   1.451       .  S
C534        C535   1.421       .  A
C535        C536   1.416       .  A
C535        C538   1.448       .  S
C536        C540   1.452       .  S
C537        N544   1.157       .  T
C538        N545   1.157       .  T
C539        N543   1.157       .  T
C540        N546   1.157       .  T
C541        N550   1.157       .  T
C542        N548   1.158       .  T
C551        C552   1.413       .  A
C551        C556   1.413       .  A
C551        C569   1.451       .  S
C552        C557   1.500       .  S
C552        C553   1.411       .  A
C553        C554   1.410       .  A
C553        C558   1.451       .  S
C554        C555   1.416       .  A
C554        C570   1.451       .  S
C555        C556   1.415       .  A
C556        C559   1.451       .  S
C557        C560   1.411       .  A
C557        C564   1.413       .  A
C558        N575   1.157       .  T
C559        N577   1.157       .  T
C560        C561   1.410       .  A
C560        C565   1.452       .  S
C561        C562   1.416       .  A
C561        C567   1.452       .  S
C562        C563   1.414       .  A
C563        C564   1.413       .  A
C563        C566   1.450       .  S
C564        C568   1.450       .  S
C565        N572   1.157       .  T
C566        N573   1.157       .  T
C567        N571   1.157       .  T
C568        N574   1.157       .  T
C569        N578   1.157       .  T
C570        N576   1.157       .  T
C579        C580   1.405       .  A
C579        C584   1.414       .  A
C579        C597   1.452       .  S
C580        C585   1.499       .  S
C580        C581   1.407       .  A
C581        C582   1.413       .  A
C581        C586   1.453       .  S
C582        C583   1.428       .  A
C582        C598   1.451       .  S
C583        C584   1.431       .  A
C584        C587   1.451       .  S
C585        C588   1.411   1_455  A
C585        C592   1.412       .  A
C586        N603   1.157       .  T
C587        N605   1.158       .  T
C588        C589   1.410       .  A
C588        C593   1.450       .  S
C589        C590   1.413   1_655  A
C589        C595   1.451       .  S
C590        C591   1.411       .  A
C591        C592   1.412       .  A
C591        C594   1.451       .  S
C592        C596   1.450       .  S
C593        N600   1.157       .  T
C594        N601   1.157       .  T
C595        N599   1.157       .  T
C596        N602   1.157       .  T
C597        N606   1.157       .  T
C598        N604   1.158       .  T
C607        C608   1.412       .  A
C607        C612   1.414       .  A
C607        C625   1.450       .  S
C608        C613   1.500       .  S
C608        C609   1.410       .  A
C609        C610   1.410       .  A
C609        C614   1.451       .  S
C610        C611   1.415       .  A
C610        C626   1.451       .  S
C611        C612   1.413       .  A
C612        C615   1.450       .  S
C613        C616   1.409       .  A
C613        C620   1.412       .  A
C614        N631   1.157       .  T
C615        N633   1.157       .  T
C616        C617   1.411       .  A
C616        C621   1.451       .  S
C617        C618   1.417       .  A
C617        C623   1.451       .  S
C618        C619   1.415       .  A
C619        C620   1.414       .  A
C619        C622   1.451   1_655  S
C620        C624   1.450   1_655  S
C621        N628   1.157       .  T
C622        N629   1.157       .  T
C623        N627   1.157       .  T
C624        N630   1.157       .  T
C625        N634   1.157   1_655  T
C626        N632   1.157       .  T
C635        C636   1.410       .  A
C635        C640   1.411       .  A
C635        C653   1.450       .  S
C636        C641   1.497       .  S
C636        C637   1.412       .  A
C637        C638   1.411       .  A
C637        C642   1.451       .  S
C638        C639   1.413       .  A
C638        C654   1.452       .  S
C639        C640   1.414       .  A
C640        C643   1.451       .  S
C641        C644   1.412       .  A
C641        C648   1.409       .  A
C642        N659   1.157       .  T
C643        N661   1.157       .  T
C644        C645   1.414       .  A
C644        C649   1.450       .  S
C645        C646   1.412       .  A
C645        C651   1.449       .  S
C646        C647   1.416       .  A
C647        C648   1.409       .  A
C647        C650   1.452       .  S
C648        C652   1.451       .  S
C649        N656   1.157       .  T
C650        N657   1.157       .  T
C651        N655   1.157       .  T
C652        N658   1.157       .  T
C653        N662   1.157       .  T
C654        N660   1.158       .  T
C663        C664   1.403       .  A
C663        C668   1.411       .  A
C663        C681   1.453       .  S
C664        C669   1.495       .  S
C664        C665   1.407       .  A
C665        C666   1.414       .  A
C665        C670   1.452       .  S
C666        C667   1.428       .  A
C666        C682   1.451       .  S
C667        C668   1.431       .  A
C668        C671   1.452       .  S
C669        C672   1.411       .  A
C669        C676   1.411       .  A
C670        N687   1.157       .  T
C671        N689   1.158       .  T
C672        C673   1.411       .  A
C672        C677   1.450       .  S
C673        C674   1.411       .  A
C673        C679   1.450       .  S
C674        C675   1.411       .  A
C675        C676   1.409       .  A
C675        C678   1.451   1_545  S
C676        C680   1.451   1_545  S
C677        N684   1.157       .  T
C678        N685   1.157       .  T
C679        N683   1.157       .  T
C680        N686   1.157       .  T
C681        N690   1.157       .  T
C682        N688   1.158       .  T
C691        C692   1.410       .  A
C691        C696   1.410       .  A
C691        C709   1.451   1_565  S
C692        C697   1.498       .  S
C692        C693   1.412       .  A
C693        C694   1.413       .  A
C693        C698   1.450       .  S
C694        C695   1.414       .  A
C694        C710   1.450       .  S
C695        C696   1.415       .  A
C696        C699   1.451   1_565  S
C697        C700   1.411       .  A
C697        C704   1.409       .  A
C698        N715   1.157       .  T
C699        N717   1.157       .  T
C700        C701   1.410       .  A
C700        C705   1.451       .  S
C701        C702   1.416       .  A
C701        C707   1.451       .  S
C702        C703   1.420       .  A
C703        C704   1.412       .  A
C703        C706   1.451   1_565  S
C704        C708   1.451       .  S
C705        N712   1.157       .  T
C706        N713   1.157       .  T
C707        N711   1.157       .  T
C708        N714   1.157   1_565  T
C709        N718   1.157       .  T
C710        N716   1.157       .  T
C719        C720   1.405       .  A
C719        C724   1.413       .  A
C719        C737   1.453       .  S
C720        C725   1.498       .  S
C720        C721   1.406       .  A
C721        C722   1.413       .  A
C721        C726   1.451       .  S
C722        C723   1.425       .  A
C722        C738   1.450       .  S
C723        C724   1.424       .  A
C724        C727   1.447       .  S
C725        C728   1.410       .  A
C725        C732   1.412       .  A
C726        N743   1.157       .  T
C727        N745   1.157       .  T
C728        C729   1.411       .  A
C728        C733   1.451       .  S
C729        C730   1.414       .  A
C729        C735   1.451       .  S
C730        C731   1.412       .  A
C731        C732   1.413       .  A
C731        C734   1.450       .  S
C732        C736   1.450       .  S
C733        N740   1.157       .  T
C734        N741   1.157       .  T
C735        N739   1.157       .  T
C736        N742   1.157       .  T
C737        N746   1.157       .  T
C738        N744   1.157       .  T
C747        C748   1.412       .  A
C747        C752   1.410       .  A
C747        C765   1.450       .  S
C748        C753   1.495       .  S
C748        C749   1.412       .  A
C749        C750   1.408       .  A
C749        C754   1.451       .  S
C750        C751   1.409       .  A
C750        C766   1.451       .  S
C751        C752   1.410       .  A
C752        C755   1.451       .  S
C753        C756   1.407       .  A
C753        C760   1.409       .  A
C754        N771   1.157       .  T
C755        N773   1.157       .  T
C756        C757   1.411       .  A
C756        C761   1.451       .  S
C757        C758   1.423       .  A
C757        C763   1.452       .  S
C758        C759   1.421       .  A
C759        C760   1.411       .  A
C759        C762   1.450       .  S
C760        C764   1.452       .  S
C761        N768   1.157       .  T
C762        N769   1.157       .  T
C763        N767   1.158       .  T
C764        N770   1.157       .  T
C765        N774   1.157       .  T
C766        N772   1.157       .  T
C775        C776   1.410       .  A
C775        C780   1.411   1_545  A
C775        C793   1.451   1_545  S
C776        C781   1.495       .  S
C776        C777   1.408       .  A
C777        C778   1.411       .  A
C777        C782   1.451       .  S
C778        C779   1.417       .  A
C778        C794   1.448       .  S
C779        C780   1.417   1_545  A
C780        C783   1.452       .  S
C781        C784   1.410       .  A
C781        C788   1.411       .  A
C782        N799   1.157       .  T
C783        N801   1.157       .  T
C784        C785   1.408       .  A
C784        C789   1.451       .  S
C785        C786   1.415       .  A
C785        C791   1.452       .  S
C786        C787   1.412       .  A
C787        C788   1.413       .  A
C787        C790   1.450       .  S
C788        C792   1.450   1_545  S
C789        N796   1.157       .  T
C790        N797   1.157   1_545  T
C791        N795   1.157       .  T
C792        N798   1.157       .  T
C793        N802   1.157       .  T
C794        N800   1.156       .  T
C803        C804   1.403       .  A
C803        C808   1.411       .  A
C803        C821   1.452       .  S
C804        C809   1.491       .  S
C804        C805   1.406       .  A
C805        C806   1.410       .  A
C805        C810   1.453       .  S
C806        C807   1.426       .  A
C806        C822   1.451       .  S
C807        C808   1.430       .  A
C808        C811   1.452       .  S
C809        C812   1.411       .  A
C809        C816   1.410       .  A
C810        N827   1.157       .  T
C811        N829   1.158       .  T
C812        C813   1.408       .  A
C812        C817   1.451   1_565  S
C813        C814   1.410       .  A
C813        C819   1.451   1_565  S
C814        C815   1.410       .  A
C815        C816   1.408       .  A
C815        C818   1.450       .  S
C816        C820   1.450       .  S
C817        N824   1.157       .  T
C818        N825   1.157       .  T
C819        N823   1.157       .  T
C820        N826   1.157       .  T
C821        N830   1.157       .  T
C822        N828   1.158       .  T
C831        C832   1.410       .  A
C831        C836   1.413       .  A
C831        C849   1.450       .  S
C832        C837   1.499       .  S
C832        C833   1.410       .  A
C833        C834   1.412       .  A
C833        C838   1.451       .  S
C834        C835   1.415       .  A
C834        C850   1.450       .  S
C835        C836   1.416       .  A
C836        C839   1.451       .  S
C837        C840   1.407       .  A
C837        C844   1.411       .  A
C838        N855   1.157       .  T
C839        N857   1.157       .  T
C840        C841   1.409       .  A
C840        C845   1.452       .  S
C841        C842   1.420       .  A
C841        C847   1.451       .  S
C842        C843   1.418       .  A
C843        C844   1.416       .  A
C843        C846   1.449       .  S
C844        C848   1.450       .  S
C845        N852   1.157       .  T
C846        N853   1.157       .  T
C847        N851   1.157       .  T
C848        N854   1.157       .  T
C849        N858   1.157       .  T
C850        N856   1.157       .  T
C859        C860   1.411       .  A
C859        C864   1.413       .  A
C859        C877   1.450   1_554  S
C860        C865   1.494       .  S
C860        C861   1.408       .  A
C861        C862   1.408       .  A
C861        C866   1.452       .  S
C862        C863   1.416       .  A
C862        C878   1.451       .  S
C863        C864   1.415       .  A
C864        C867   1.451       .  S
C865        C868   1.411   1_554  A
C865        C872   1.409       .  A
C866        N883   1.157       .  T
C867        N885   1.157   1_554  T
C868        C869   1.412       .  A
C868        C873   1.451       .  S
C869        C870   1.414   1_556  A
C869        C875   1.449       .  S
C870        C871   1.415       .  A
C871        C872   1.409       .  A
C871        C874   1.452       .  S
C872        C876   1.451       .  S
C873        N880   1.157       .  T
C874        N881   1.157       .  T
C875        N879   1.157       .  T
C876        N882   1.157       .  T
C877        N886   1.157       .  T
C878        N884   1.157       .  T
C887        C888   1.405       .  A
C887        C892   1.412       .  A
C887        C905   1.452       .  S
C888        C893   1.497       .  S
C888        C889   1.408       .  A
C889        C890   1.413       .  A
C889        C894   1.452       .  S
C890        C891   1.424       .  A
C890        C906   1.451       .  S
C891        C892   1.428       .  A
C892        C895   1.451       .  S
C893        C896   1.411       .  A
C893        C900   1.411       .  A
C894        N911   1.157       .  T
C895        N913   1.158       .  T
C896        C897   1.412       .  A
C896        C901   1.450       .  S
C897        C898   1.412       .  A
C897        C903   1.451       .  S
C898        C899   1.411       .  A
C899        C900   1.410       .  A
C899        C902   1.450   1_556  S
C900        C904   1.450   1_556  S
C901        N908   1.157       .  T
C902        N909   1.157       .  T
C903        N907   1.157       .  T
C904        N910   1.157       .  T
C905        N914   1.157       .  T
C906        N912   1.158       .  T
C915        C916   1.413       .  A
C915        C920   1.415       .  A
C915        C933   1.450       .  S
C916        C921   1.505       .  S
C916        C917   1.412       .  A
C917        C918   1.415       .  A
C917        C922   1.450       .  S
C918        C919   1.414       .  A
C918        C934   1.450       .  S
C919        C920   1.414       .  A
C920        C923   1.450       .  S
C921        C924   1.410       .  A
C921        C928   1.410       .  A
C922        N939   1.157       .  T
C923        N941   1.157       .  T
C924        C925   1.415       .  A
C924        C929   1.450       .  S
C925        C926   1.419       .  A
C925        C931   1.451       .  S
C926        C927   1.416       .  A
C927        C928   1.415       .  A
C927        C930   1.447       .  S
C928        C932   1.451       .  S
C929        N936   1.157       .  T
C930        N937   1.156       .  T
C931        N935   1.157       .  T
C932        N938   1.157       .  T
C933        N942   1.157       .  T
C934        N940   1.157       .  T
C943        C944   1.412       .  A
C943        C948   1.412       .  A
C943        C961   1.451       .  S
C944        C949   1.500       .  S
C944        C945   1.410       .  A
C945        C946   1.414       .  A
C945        C950   1.450       .  S
C946        C947   1.417       .  A
C946        C962   1.451       .  S
C947        C948   1.415       .  A
C948        C951   1.451       .  S
C949        C952   1.411       .  A
C949        C956   1.407       .  A
C950        N967   1.157       .  T
C951        N969   1.157       .  T
C952        C953   1.417       .  A
C952        C957   1.450       .  S
C953        C954   1.418       .  A
C953        C959   1.449       .  S
C954        C955   1.422       .  A
C955        C956   1.409       .  A
C955        C958   1.453       .  S
C956        C960   1.452       .  S
C957        N964   1.157       .  T
C958        N965   1.157       .  T
C959        N963   1.157       .  T
C960        N966   1.157       .  T
C961        N970   1.157       .  T
C962        N968   1.157       .  T
C971        C972   1.412   1_655  A
C971        C976   1.411       .  A
C971        C989   1.451       .  S
C972        C977   1.496       .  S
C972        C973   1.410       .  A
C973        C974   1.409       .  A
C973        C978   1.450       .  S
C974        C975   1.414       .  A
C974        C990   1.451       .  S
C975        C976   1.414   1_455  A
C976        C979   1.452       .  S
C977        C980   1.413       .  A
C977        C984   1.410       .  A
C978        N995   1.157       .  T
C979        N997   1.158       .  T
C980        C981   1.412       .  A
C980        C985   1.450   1_455  S
C981        C982   1.411       .  A
C981        C987   1.450   1_455  S
C982        C983   1.414       .  A
C983        C984   1.408       .  A
C983        C986   1.452       .  S
C984        C988   1.451       .  S
C985        N992   1.157       .  T
C986        N993   1.157       .  T
C987        N991   1.157       .  T
C988        N994   1.157       .  T
C989        N998   1.157       .  T
C990        N996   1.157       .  T
C999       C1000   1.411       .  A
C999       C1004   1.410       .  A
C999       C1017   1.451       .  S
C1000      C1005   1.494       .  S
C1000      C1001   1.409       .  A
C1001      C1002   1.411       .  A
C1001      C1006   1.450       .  S
C1002      C1003   1.416       .  A
C1002      C1018   1.451       .  S
C1003      C1004   1.414       .  A
C1004      C1007   1.452   1_655  S
C1005      C1008   1.411       .  A
C1005      C1012   1.410       .  A
C1006      N1023   1.157       .  T
C1007      N1025   1.157       .  T
C1008      C1009   1.413       .  A
C1008      C1013   1.450       .  S
C1009      C1010   1.414       .  A
C1009      C1015   1.450       .  S
C1010      C1011   1.413       .  A
C1011      C1012   1.407       .  A
C1011      C1014   1.451       .  S
C1012      C1016   1.451       .  S
C1013      N1020   1.157       .  T
C1014      N1021   1.157       .  T
C1015      N1019   1.157       .  T
C1016      N1022   1.157       .  T
C1017      N1026   1.157   1_655  T
C1018      N1024   1.157       .  T
C1027      C1028   1.414       .  A
C1027      C1032   1.413       .  A
C1027      C1045   1.450       .  S
C1028      C1033   1.504       .  S
C1028      C1029   1.413       .  A
C1029      C1030   1.412       .  A
C1029      C1034   1.450       .  S
C1030      C1031   1.412       .  A
C1030      C1046   1.450       .  S
C1031      C1032   1.411       .  A
C1032      C1035   1.451       .  S
C1033      C1036   1.412       .  A
C1033      C1040   1.408       .  A
C1034      N1051   1.157       .  T
C1035      N1053   1.157       .  T
C1036      C1037   1.417       .  A
C1036      C1041   1.450       .  S
C1037      C1038   1.420       .  A
C1037      C1043   1.449       .  S
C1038      C1039   1.425       .  A
C1039      C1040   1.410       .  A
C1039      C1042   1.453       .  S
C1040      C1044   1.452       .  S
C1041      N1048   1.157       .  T
C1042      N1049   1.158       .  T
C1043      N1047   1.157       .  T
C1044      N1050   1.157       .  T
C1045      N1054   1.157       .  T
C1046      N1052   1.157       .  T
C1055      C1056   1.410       .  A
C1055      C1060   1.414       .  A
C1055      C1073   1.450       .  S
C1056      C1061   1.499       .  S
C1056      C1057   1.411       .  A
C1057      C1058   1.410   1_554  A
C1057      C1062   1.452   1_554  S
C1058      C1059   1.417   1_556  A
C1058      C1074   1.452       .  S
C1059      C1060   1.418       .  A
C1060      C1063   1.450       .  S
C1061      C1064   1.413       .  A
C1061      C1068   1.412       .  A
C1062      N1079   1.157       .  T
C1063      N1081   1.157       .  T
C1064      C1065   1.412       .  A
C1064      C1069   1.450   1_554  S
C1065      C1066   1.410       .  A
C1065      C1071   1.450   1_554  S
C1066      C1067   1.410       .  A
C1067      C1068   1.409       .  A
C1067      C1070   1.451       .  S
C1068      C1072   1.450       .  S
C1069      N1076   1.157       .  T
C1070      N1077   1.157       .  T
C1071      N1075   1.157       .  T
C1072      N1078   1.157       .  T
C1073      N1082   1.157       .  T
C1074      N1080   1.157       .  T
C1083      C1084   1.410       .  A
C1083      C1088   1.414       .  A
C1083      C1101   1.450       .  S
C1084      C1089   1.497       .  S
C1084      C1085   1.407       .  A
C1085      C1086   1.409       .  A
C1085      C1090   1.452       .  S
C1086      C1087   1.422       .  A
C1086      C1102   1.452       .  S
C1087      C1088   1.419       .  A
C1088      C1091   1.450       .  S
C1089      C1092   1.410       .  A
C1089      C1096   1.412       .  A
C1090      N1107   1.157       .  T
C1091      N1109   1.158       .  T
C1092      C1093   1.410       .  A
C1092      C1097   1.450       .  S
C1093      C1094   1.415       .  A
C1093      C1099   1.452       .  S
C1094      C1095   1.414       .  A
C1095      C1096   1.411       .  A
C1095      C1098   1.451   1_556  S
C1096      C1100   1.451   1_556  S
C1097      N1104   1.157       .  T
C1098      N1105   1.157       .  T
C1099      N1103   1.157       .  T
C1100      N1106   1.157       .  T
C1101      N1110   1.157       .  T
C1102      N1108   1.157       .  T
C1111      C1112   1.412       .  A
C1111      C1116   1.408       .  A
C1111      C1129   1.451       .  S
C1112      C1117   1.494       .  S
C1112      C1113   1.411       .  A
C1113      C1114   1.411       .  A
C1113      C1118   1.450       .  S
C1114      C1115   1.412       .  A
C1114      C1130   1.450       .  S
C1115      C1116   1.411       .  A
C1116      C1119   1.451       .  S
C1117      C1120   1.408       .  A
C1117      C1124   1.408       .  A
C1118      N1135   1.157       .  T
C1119      N1137   1.157       .  T
C1120      C1121   1.411       .  A
C1120      C1125   1.451       .  S
C1121      C1122   1.416       .  A
C1121      C1127   1.450       .  S
C1122      C1123   1.414       .  A
C1123      C1124   1.411       .  A
C1123      C1126   1.446       .  S
C1124      C1128   1.452       .  S
C1125      N1132   1.157       .  T
C1126      N1133   1.156       .  T
C1127      N1131   1.157       .  T
C1128      N1134   1.157       .  T
C1129      N1138   1.157       .  T
C1130      N1136   1.157       .  T
C1139      C1140   1.412       .  A
C1139      C1144   1.409       .  A
C1139      C1157   1.450       .  S
C1140      C1145   1.495       .  S
C1140      C1141   1.412       .  A
C1141      C1142   1.410       .  A
C1141      C1146   1.450       .  S
C1142      C1143   1.410       .  A
C1142      C1158   1.451       .  S
C1143      C1144   1.409       .  A
C1144      C1147   1.451       .  S
C1145      C1148   1.407       .  A
C1145      C1152   1.406       .  A
C1146      N1163   1.157       .  T
C1147      N1165   1.157       .  T
C1148      C1149   1.410       .  A
C1148      C1153   1.453       .  S
C1149      C1150   1.425       .  A
C1149      C1155   1.452       .  S
C1150      C1151   1.427       .  A
C1151      C1152   1.414       .  A
C1151      C1154   1.451       .  S
C1152      C1156   1.452       .  S
C1153      N1160   1.157       .  T
C1154      N1161   1.158       .  T
C1155      N1159   1.158       .  T
C1156      N1162   1.157       .  T
C1157      N1166   1.157       .  T
C1158      N1164   1.157       .  T
C1167      C1168   1.409       .  A
C1167      C1172   1.406       .  A
C1167      C1185   1.451       .  S
C1168      C1173   1.492       .  S
C1168      C1169   1.412       .  A
C1169      C1170   1.410       .  A
C1169      C1174   1.450       .  S
C1170      C1171   1.412       .  A
C1170      C1186   1.451       .  S
C1171      C1172   1.415       .  A
C1172      C1175   1.452       .  S
C1173      C1176   1.410       .  A
C1173      C1180   1.409       .  A
C1174      N1191   1.157       .  T
C1175      N1193   1.157       .  T
C1176      C1177   1.411       .  A
C1176      C1181   1.451       .  S
C1177      C1178   1.416       .  A
C1177      C1183   1.450       .  S
C1178      C1179   1.417       .  A
C1179      C1180   1.406       .  A
C1179      C1182   1.452       .  S
C1180      C1184   1.452       .  S
C1181      N1188   1.157       .  T
C1182      N1189   1.157       .  T
C1183      N1187   1.157       .  T
C1184      N1190   1.157       .  T
C1185      N1194   1.157       .  T
C1186      N1192   1.157       .  T
C1195      C1196   1.409       .  A
C1195      C1200   1.411       .  A
C1195      C1213   1.450       .  S
C1196      C1201   1.494       .  S
C1196      C1197   1.412       .  A
C1197      C1198   1.410       .  A
C1197      C1202   1.451   1_545  S
C1198      C1199   1.412       .  A
C1198      C1214   1.450   1_545  S
C1199      C1200   1.416       .  A
C1200      C1203   1.451       .  S
C1201      C1204   1.410       .  A
C1201      C1208   1.408       .  A
C1202      N1219   1.157       .  T
C1203      N1221   1.157       .  T
C1204      C1205   1.411       .  A
C1204      C1209   1.450       .  S
C1205      C1206   1.413       .  A
C1205      C1211   1.449       .  S
C1206      C1207   1.416       .  A
C1207      C1208   1.409       .  A
C1207      C1210   1.452       .  S
C1208      C1212   1.451       .  S
C1209      N1216   1.157       .  T
C1210      N1217   1.157       .  T
C1211      N1215   1.157       .  T
C1212      N1218   1.157       .  T
C1213      N1222   1.157       .  T
C1214      N1220   1.157       .  T
C1223      C1224   1.410       .  A
C1223      C1228   1.412       .  A
C1223      C1241   1.450       .  S
C1224      C1229   1.498       .  S
C1224      C1225   1.411       .  A
C1225      C1226   1.411       .  A
C1225      C1230   1.450   1_565  S
C1226      C1227   1.415       .  A
C1226      C1242   1.452   1_565  S
C1227      C1228   1.416       .  A
C1228      C1231   1.450       .  S
C1229      C1232   1.412       .  A
C1229      C1236   1.410       .  A
C1230      N1247   1.157       .  T
C1231      N1249   1.157       .  T
C1232      C1233   1.414       .  A
C1232      C1237   1.450       .  S
C1233      C1234   1.413       .  A
C1233      C1239   1.450       .  S
C1234      C1235   1.414       .  A
C1235      C1236   1.410       .  A
C1235      C1238   1.451       .  S
C1236      C1240   1.451       .  S
C1237      N1244   1.157   1_565  T
C1238      N1245   1.157       .  T
C1239      N1243   1.157       .  T
C1240      N1246   1.157       .  T
C1241      N1250   1.157       .  T
C1242      N1248   1.157       .  T
C1251      C1252   1.410       .  A
C1251      C1256   1.408       .  A
C1251      C1269   1.452       .  S
C1252      C1257   1.492       .  S
C1252      C1253   1.408       .  A
C1253      C1254   1.409       .  A
C1253      C1258   1.451       .  S
C1254      C1255   1.419       .  A
C1254      C1270   1.451   1_565  S
C1255      C1256   1.417       .  A
C1256      C1259   1.452       .  S
C1257      C1260   1.411       .  A
C1257      C1264   1.410       .  A
C1258      N1275   1.157       .  T
C1259      N1277   1.158       .  T
C1260      C1261   1.408       .  A
C1260      C1265   1.452   1_565  S
C1261      C1262   1.412       .  A
C1261      C1267   1.451   1_565  S
C1262      C1263   1.412       .  A
C1263      C1264   1.409       .  A
C1263      C1266   1.450       .  S
C1264      C1268   1.450       .  S
C1265      N1272   1.157       .  T
C1266      N1273   1.157       .  T
C1267      N1271   1.157       .  T
C1268      N1274   1.157       .  T
C1269      N1278   1.157       .  T
C1270      N1276   1.157       .  T
C1279      C1280   1.410       .  A
C1279      C1284   1.410       .  A
C1279      C1297   1.451       .  S
C1280      C1285   1.494       .  S
C1280      C1281   1.409       .  A
C1281      C1282   1.410       .  A
C1281      C1286   1.451   1_545  S
C1282      C1283   1.419       .  A
C1282      C1298   1.452   1_545  S
C1283      C1284   1.417       .  A
C1284      C1287   1.451       .  S
C1285      C1288   1.410       .  A
C1285      C1292   1.411       .  A
C1286      N1303   1.157       .  T
C1287      N1305   1.157       .  T
C1288      C1289   1.408       .  A
C1288      C1293   1.451   1_545  S
C1289      C1290   1.414       .  A
C1289      C1295   1.452   1_545  S
C1290      C1291   1.412       .  A
C1291      C1292   1.411       .  A
C1291      C1294   1.449       .  S
C1292      C1296   1.451       .  S
C1293      N1300   1.157       .  T
C1294      N1301   1.157       .  T
C1295      N1299   1.157       .  T
C1296      N1302   1.157       .  T
C1297      N1306   1.157       .  T
C1298      N1304   1.158       .  T
C1307      C1308   1.410       .  A
C1307      C1312   1.410       .  A
C1307      C1325   1.450       .  S
C1308      C1313   1.496       .  S
C1308      C1309   1.411       .  A
C1309      C1310   1.411       .  A
C1309      C1314   1.450       .  S
C1310      C1311   1.411       .  A
C1310      C1326   1.451       .  S
C1311      C1312   1.410       .  A
C1312      C1315   1.449       .  S
C1313      C1316   1.412       .  A
C1313      C1320   1.410       .  A
C1314      N1331   1.157       .  T
C1315      N1333   1.157       .  T
C1316      C1317   1.410       .  A
C1316      C1321   1.451       .  S
C1317      C1318   1.412       .  A
C1317      C1323   1.451       .  S
C1318      C1319   1.413       .  A
C1319      C1320   1.411       .  A
C1319      C1322   1.450       .  S
C1320      C1324   1.450       .  S
C1321      N1328   1.157       .  T
C1322      N1329   1.157       .  T
C1323      N1327   1.157       .  T
C1324      N1330   1.157       .  T
C1325      N1334   1.157       .  T
C1326      N1332   1.157       .  T
C1335      C1336   1.413       .  A
C1335      C1340   1.410       .  A
C1335      C1353   1.451       .  S
C1336      C1341   1.495       .  S
C1336      C1337   1.411       .  A
C1337      C1338   1.409       .  A
C1337      C1342   1.451       .  S
C1338      C1339   1.413       .  A
C1338      C1354   1.452       .  S
C1339      C1340   1.412       .  A
C1340      C1343   1.451       .  S
C1341      C1344   1.411       .  A
C1341      C1348   1.412       .  A
C1342      N1359   1.157       .  T
C1343      N1361   1.157       .  T
C1344      C1345   1.408       .  A
C1344      C1349   1.451       .  S
C1345      C1346   1.412       .  A
C1345      C1351   1.451       .  S
C1346      C1347   1.412       .  A
C1347      C1348   1.411       .  A
C1347      C1350   1.450       .  S
C1348      C1352   1.450       .  S
C1349      N1356   1.157       .  T
C1350      N1357   1.157       .  T
C1351      N1355   1.157       .  T
C1352      N1358   1.157       .  T
C1353      N1362   1.157       .  T
C1354      N1360   1.157       .  T
C1363      C1364   1.410       .  A
C1363      C1368   1.407       .  A
C1363      C1381   1.451       .  S
C1364      C1369   1.495       .  S
C1364      C1365   1.412       .  A
C1365      C1366   1.412       .  A
C1365      C1370   1.450       .  S
C1366      C1367   1.412       .  A
C1366      C1382   1.450       .  S
C1367      C1368   1.413       .  A
C1368      C1371   1.452       .  S
C1369      C1372   1.411       .  A
C1369      C1376   1.409       .  A
C1370      N1387   1.157       .  T
C1371      N1389   1.157       .  T
C1372      C1373   1.409       .  A
C1372      C1377   1.451       .  S
C1373      C1374   1.415       .  A
C1373      C1379   1.451       .  S
C1374      C1375   1.417       .  A
C1375      C1376   1.411       .  A
C1375      C1378   1.451       .  S
C1376      C1380   1.451       .  S
C1377      N1384   1.157       .  T
C1378      N1385   1.157       .  T
C1379      N1383   1.157       .  T
C1380      N1386   1.157       .  T
C1381      N1390   1.157       .  T
C1382      N1388   1.157       .  T
C1391      C1392   1.411       .  A
C1391      C1396   1.413       .  A
C1391      C1409   1.451       .  S
C1392      C1397   1.503       .  S
C1392      C1393   1.411       .  A
C1393      C1394   1.414       .  A
C1393      C1398   1.450       .  S
C1394      C1395   1.417       .  A
C1394      C1410   1.451       .  S
C1395      C1396   1.417       .  A
C1396      C1399   1.451       .  S
C1397      C1400   1.408       .  A
C1397      C1404   1.409       .  A
C1398      N1415   1.157       .  T
C1399      N1417   1.157       .  T
C1400      C1401   1.414       .  A
C1400      C1405   1.451       .  S
C1401      C1402   1.423       .  A
C1401      C1407   1.450       .  S
C1402      C1403   1.421       .  A
C1403      C1404   1.415       .  A
C1403      C1406   1.447       .  S
C1404      C1408   1.452       .  S
C1405      N1412   1.157       .  T
C1406      N1413   1.156       .  T
C1407      N1411   1.157       .  T
C1408      N1414   1.157       .  T
C1409      N1418   1.157       .  T
C1410      N1416   1.157       .  T
C1419      C1420   1.411       .  A
C1419      C1424   1.414       .  A
C1419      C1437   1.450       .  S
C1420      C1425   1.498       .  S
C1420      C1421   1.409       .  A
C1421      C1422   1.409       .  A
C1421      C1426   1.452       .  S
C1422      C1423   1.419       .  A
C1422      C1438   1.453       .  S
C1423      C1424   1.416       .  A
C1424      C1427   1.450       .  S
C1425      C1428   1.411       .  A
C1425      C1432   1.412       .  A
C1426      N1443   1.157       .  T
C1427      N1445   1.157       .  T
C1428      C1429   1.412       .  A
C1428      C1433   1.450       .  S
C1429      C1430   1.414       .  A
C1429      C1435   1.451       .  S
C1430      C1431   1.412       .  A
C1431      C1432   1.411       .  A
C1431      C1434   1.451       .  S
C1432      C1436   1.451       .  S
C1433      N1440   1.157       .  T
C1434      N1441   1.157       .  T
C1435      N1439   1.157       .  T
C1436      N1442   1.157       .  T
C1437      N1446   1.157       .  T
C1438      N1444   1.158       .  T
C1447      C1448   1.409       .  A
C1447      C1452   1.409       .  A
C1447      C1465   1.450       .  S
C1448      C1453   1.495       .  S
C1448      C1449   1.413       .  A
C1449      C1450   1.412       .  A
C1449      C1454   1.451       .  S
C1450      C1451   1.413       .  A
C1450      C1466   1.451       .  S
C1451      C1452   1.415       .  A
C1452      C1455   1.452       .  S
C1453      C1456   1.411       .  A
C1453      C1460   1.410       .  A
C1454      N1471   1.157       .  T
C1455      N1473   1.157       .  T
C1456      C1457   1.411       .  A
C1456      C1461   1.450       .  S
C1457      C1458   1.412       .  A
C1457      C1463   1.450       .  S
C1458      C1459   1.414       .  A
C1459      C1460   1.410       .  A
C1459      C1462   1.451       .  S
C1460      C1464   1.451       .  S
C1461      N1468   1.157       .  T
C1462      N1469   1.157       .  T
C1463      N1467   1.157       .  T
C1464      N1470   1.157       .  T
C1465      N1474   1.157       .  T
C1466      N1472   1.157       .  T
C1475      C1476   1.410       .  A
C1475      C1480   1.412       .  A
C1475      C1493   1.451       .  S
C1476      C1481   1.496       .  S
C1476      C1477   1.410       .  A
C1477      C1478   1.409       .  A
C1477      C1482   1.451       .  S
C1478      C1479   1.417       .  A
C1478      C1494   1.452       .  S
C1479      C1480   1.418       .  A
C1480      C1483   1.451   1_655  S
C1481      C1484   1.411       .  A
C1481      C1488   1.410       .  A
C1482      N1499   1.157       .  T
C1483      N1501   1.157       .  T
C1484      C1485   1.413       .  A
C1484      C1489   1.450       .  S
C1485      C1486   1.414       .  A
C1485      C1491   1.450       .  S
C1486      C1487   1.415       .  A
C1487      C1488   1.408       .  A
C1487      C1490   1.451   1_655  S
C1488      C1492   1.451   1_655  S
C1489      N1496   1.157       .  T
C1490      N1497   1.157       .  T
C1491      N1495   1.157       .  T
C1492      N1498   1.157       .  T
C1493      N1502   1.157   1_655  T
C1494      N1500   1.157       .  T
C1503      C1504   1.409       .  A
C1503      C1508   1.412   1_455  A
C1503      C1521   1.451   1_455  S
C1504      C1509   1.499       .  S
C1504      C1505   1.410       .  A
C1505      C1506   1.412       .  A
C1505      C1510   1.451       .  S
C1506      C1507   1.418       .  A
C1506      C1522   1.451       .  S
C1507      C1508   1.419   1_455  A
C1508      C1511   1.451       .  S
C1509      C1512   1.411       .  A
C1509      C1516   1.409       .  A
C1510      N1527   1.157       .  T
C1511      N1529   1.157       .  T
C1512      C1513   1.414       .  A
C1512      C1517   1.450       .  S
C1513      C1514   1.417       .  A
C1513      C1519   1.450       .  S
C1514      C1515   1.418       .  A
C1515      C1516   1.411       .  A
C1515      C1518   1.450   1_455  S
C1516      C1520   1.452   1_455  S
C1517      N1524   1.157       .  T
C1518      N1525   1.157       .  T
C1519      N1523   1.157       .  T
C1520      N1526   1.157       .  T
C1521      N1530   1.157       .  T
C1522      N1528   1.157       .  T
C1531      C1532   1.409       .  A
C1531      C1536   1.409       .  A
C1531      C1549   1.451       .  S
C1532      C1537   1.499       .  S
C1532      C1533   1.413       .  A
C1533      C1534   1.414       .  A
C1533      C1538   1.450       .  S
C1534      C1535   1.413       .  A
C1534      C1550   1.450       .  S
C1535      C1536   1.416       .  A
C1536      C1539   1.452       .  S
C1537      C1540   1.408       .  A
C1537      C1544   1.411       .  A
C1538      N1555   1.157       .  T
C1539      N1557   1.157       .  T
C1540      C1541   1.411       .  A
C1540      C1545   1.451       .  S
C1541      C1542   1.420       .  A
C1541      C1547   1.451   1_655  S
C1542      C1543   1.418       .  A
C1543      C1544   1.414       .  A
C1543      C1546   1.451       .  S
C1544      C1548   1.451       .  S
C1545      N1552   1.157       .  T
C1546      N1553   1.157       .  T
C1547      N1551   1.157       .  T
C1548      N1554   1.157       .  T
C1549      N1558   1.157   1_655  T
C1550      N1556   1.157       .  T
C1559      C1560   1.408       .  A
C1559      C1564   1.412   1_455  A
C1559      C1577   1.452   1_455  S
C1560      C1565   1.503       .  S
C1560      C1561   1.413       .  A
C1561      C1562   1.414       .  A
C1561      C1566   1.452       .  S
C1562      C1563   1.420       .  A
C1562      C1578   1.451       .  S
C1563      C1564   1.424   1_455  A
C1564      C1567   1.452       .  S
C1565      C1568   1.414       .  A
C1565      C1572   1.414       .  A
C1566      N1583   1.157       .  T
C1567      N1585   1.158       .  T
C1568      C1569   1.410       .  A
C1568      C1573   1.451   1_455  S
C1569      C1570   1.411       .  A
C1569      C1575   1.450   1_455  S
C1570      C1571   1.411       .  A
C1571      C1572   1.413       .  A
C1571      C1574   1.448       .  S
C1572      C1576   1.450       .  S
C1573      N1580   1.157       .  T
C1574      N1581   1.157       .  T
C1575      N1579   1.157       .  T
C1576      N1582   1.157       .  T
C1577      N1586   1.157       .  T
C1578      N1584   1.157       .  T
C1587      C1588   1.409       .  A
C1587      C1592   1.414       .  A
C1587      C1605   1.451       .  S
C1588      C1593   1.503       .  S
C1588      C1589   1.410       .  A
C1589      C1590   1.414       .  A
C1589      C1594   1.451       .  S
C1590      C1591   1.421       .  A
C1590      C1606   1.451       .  S
C1591      C1592   1.419       .  A
C1592      C1595   1.450       .  S
C1593      C1596   1.406       .  A
C1593      C1600   1.407       .  A
C1594      N1611   1.157       .  T
C1595      N1613   1.157       .  T
C1596      C1597   1.414       .  A
C1596      C1601   1.453       .  S
C1597      C1598   1.423       .  A
C1597      C1603   1.445       .  S
C1598      C1599   1.424       .  A
C1599      C1600   1.417       .  A
C1599      C1602   1.448       .  S
C1600      C1604   1.451       .  S
C1601      N1608   1.157       .  T
C1602      N1609   1.156       .  T
C1603      N1607   1.156       .  T
C1604      N1610   1.157       .  T
C1605      N1614   1.157       .  T
C1606      N1612   1.158       .  T
C1615      C1616   1.415       .  A
C1615      C1620   1.414       .  A
C1615      C1633   1.450       .  S
C1616      C1621   1.505       .  S
C1616      C1617   1.415       .  A
C1617      C1618   1.410       .  A
C1617      C1622   1.451       .  S
C1618      C1619   1.409       .  A
C1618      C1634   1.450       .  S
C1619      C1620   1.412       .  A
C1620      C1623   1.450       .  S
C1621      C1624   1.415       .  A
C1621      C1628   1.413       .  A
C1622      N1639   1.157       .  T
C1623      N1641   1.157       .  T
C1624      C1625   1.413       .  A
C1624      C1629   1.451       .  S
C1625      C1626   1.413       .  A
C1625      C1631   1.451       .  S
C1626      C1627   1.414       .  A
C1627      C1628   1.412       .  A
C1627      C1630   1.451       .  S
C1628      C1632   1.451       .  S
C1629      N1636   1.157       .  T
C1630      N1637   1.157       .  T
C1631      N1635   1.157       .  T
C1632      N1638   1.157       .  T
C1633      N1642   1.157       .  T
C1634      N1640   1.157       .  T
C1643      C1644   1.412       .  A
C1643      C1648   1.411       .  A
C1643      C1661   1.451       .  S
C1644      C1649   1.499       .  S
C1644      C1645   1.411       .  A
C1645      C1646   1.412       .  A
C1645      C1650   1.450       .  S
C1646      C1647   1.416       .  A
C1646      C1662   1.451       .  S
C1647      C1648   1.414       .  A
C1648      C1651   1.451       .  S
C1649      C1652   1.412       .  A
C1649      C1656   1.412       .  A
C1650      N1667   1.157       .  T
C1651      N1669   1.157       .  T
C1652      C1653   1.411       .  A
C1652      C1657   1.451       .  S
C1653      C1654   1.413       .  A
C1653      C1659   1.450       .  S
C1654      C1655   1.411       .  A
C1655      C1656   1.412       .  A
C1655      C1658   1.450       .  S
C1656      C1660   1.450       .  S
C1657      N1664   1.157       .  T
C1658      N1665   1.157       .  T
C1659      N1663   1.157       .  T
C1660      N1666   1.157       .  T
C1661      N1670   1.157       .  T
C1662      N1668   1.157       .  T
C1671      C1672   1.412       .  A
C1671      C1676   1.413       .  A
C1671      C1689   1.450       .  S
C1672      C1677   1.505       .  S
C1672      C1673   1.413       .  A
C1673      C1674   1.414       .  A
C1673      C1678   1.450       .  S
C1674      C1675   1.413       .  A
C1674      C1690   1.450       .  S
C1675      C1676   1.413       .  A
C1676      C1679   1.449       .  S
C1677      C1680   1.409       .  A
C1677      C1684   1.408       .  A
C1678      N1695   1.157       .  T
C1679      N1697   1.157       .  T
C1680      C1681   1.416       .  A
C1680      C1685   1.451       .  S
C1681      C1682   1.421       .  A
C1681      C1687   1.449       .  S
C1682      C1683   1.421       .  A
C1683      C1684   1.415       .  A
C1683      C1686   1.446       .  S
C1684      C1688   1.452       .  S
C1685      N1692   1.157       .  T
C1686      N1693   1.156       .  T
C1687      N1691   1.156       .  T
C1688      N1694   1.157       .  T
C1689      N1698   1.157       .  T
C1690      N1696   1.157       .  T
C1699      C1700   1.412       .  A
C1699      C1704   1.411       .  A
C1699      C1717   1.450       .  S
C1700      C1705   1.496       .  S
C1700      C1701   1.411       .  A
C1701      C1702   1.410       .  A
C1701      C1706   1.450       .  S
C1702      C1703   1.413       .  A
C1702      C1718   1.451       .  S
C1703      C1704   1.412       .  A
C1704      C1707   1.452       .  S
C1705      C1708   1.407       .  A
C1705      C1712   1.410       .  A
C1706      N1723   1.157       .  T
C1707      N1725   1.157       .  T
C1708      C1709   1.409       .  A
C1708      C1713   1.452       .  S
C1709      C1710   1.420       .  A
C1709      C1715   1.452       .  S
C1710      C1711   1.416       .  A
C1711      C1712   1.414       .  A
C1711      C1714   1.448       .  S
C1712      C1716   1.451       .  S
C1713      N1720   1.157       .  T
C1714      N1721   1.157       .  T
C1715      N1719   1.157       .  T
C1716      N1722   1.157       .  T
C1717      N1726   1.157       .  T
C1718      N1724   1.157       .  T
C1727      C1728   1.413       .  A
C1727      C1732   1.411       .  A
C1727      C1745   1.450       .  S
C1728      C1733   1.498       .  S
C1728      C1729   1.411       .  A
C1729      C1730   1.411       .  A
C1729      C1734   1.450       .  S
C1730      C1731   1.414       .  A
C1730      C1746   1.451       .  S
C1731      C1732   1.412       .  A
C1732      C1735   1.451       .  S
C1733      C1736   1.409       .  A
C1733      C1740   1.411       .  A
C1734      N1751   1.157       .  T
C1735      N1753   1.157       .  T
C1736      C1737   1.409       .  A
C1736      C1741   1.452       .  S
C1737      C1738   1.420       .  A
C1737      C1743   1.452       .  S
C1738      C1739   1.416       .  A
C1739      C1740   1.415       .  A
C1739      C1742   1.448       .  S
C1740      C1744   1.451       .  S
C1741      N1748   1.157       .  T
C1742      N1749   1.157       .  T
C1743      N1747   1.157       .  T
C1744      N1750   1.157       .  T
C1745      N1754   1.157       .  T
C1746      N1752   1.157       .  T
C1755      C1756   1.414       .  A
C1755      C1760   1.414       .  A
C1755      C1773   1.451   1_554  S
C1756      C1761   1.504       .  S
C1756      C1757   1.411       .  A
C1757      C1758   1.413       .  A
C1757      C1762   1.451       .  S
C1758      C1759   1.418       .  A
C1758      C1774   1.451       .  S
C1759      C1760   1.415       .  A
C1760      C1763   1.451   1_554  S
C1761      C1764   1.413       .  A
C1761      C1768   1.414       .  A
C1762      N1779   1.157       .  T
C1763      N1781   1.157       .  T
C1764      C1765   1.412       .  A
C1764      C1769   1.450       .  S
C1765      C1766   1.412       .  A
C1765      C1771   1.450       .  S
C1766      C1767   1.410       .  A
C1767      C1768   1.413       .  A
C1767      C1770   1.449       .  S
C1768      C1772   1.450   1_554  S
C1769      N1776   1.157       .  T
C1770      N1777   1.157   1_554  T
C1771      N1775   1.157       .  T
C1772      N1778   1.157       .  T
C1773      N1782   1.157       .  T
C1774      N1780   1.157       .  T
C1783      C1784   1.410       .  A
C1783      C1788   1.410       .  A
C1783      C1801   1.451       .  S
C1784      C1789   1.501       .  S
C1784      C1785   1.413       .  A
C1785      C1786   1.414       .  A
C1785      C1790   1.450   1_556  S
C1786      C1787   1.413       .  A
C1786      C1802   1.450   1_556  S
C1787      C1788   1.417       .  A
C1788      C1791   1.452       .  S
C1789      C1792   1.412   1_556  A
C1789      C1796   1.411       .  A
C1790      N1807   1.157       .  T
C1791      N1809   1.158       .  T
C1792      C1793   1.413       .  A
C1792      C1797   1.450       .  S
C1793      C1794   1.414   1_554  A
C1793      C1799   1.451       .  S
C1794      C1795   1.414       .  A
C1795      C1796   1.413       .  A
C1795      C1798   1.451       .  S
C1796      C1800   1.450       .  S
C1797      N1804   1.157       .  T
C1798      N1805   1.157       .  T
C1799      N1803   1.157       .  T
C1800      N1806   1.157       .  T
C1801      N1810   1.157       .  T
C1802      N1808   1.157       .  T
C1811      C1812   1.409       .  A
C1811      C1816   1.409       .  A
C1811      C1829   1.451       .  S
C1812      C1817   1.496       .  S
C1812      C1813   1.411   1_554  A
C1813      C1814   1.412       .  A
C1813      C1818   1.451       .  S
C1814      C1815   1.415   1_556  A
C1814      C1830   1.451       .  S
C1815      C1816   1.417       .  A
C1816      C1819   1.451       .  S
C1817      C1820   1.408       .  A
C1817      C1824   1.412       .  A
C1818      N1835   1.157       .  T
C1819      N1837   1.157       .  T
C1820      C1821   1.407       .  A
C1820      C1825   1.452       .  S
C1821      C1822   1.415       .  A
C1821      C1827   1.449       .  S
C1822      C1823   1.415       .  A
C1823      C1824   1.415       .  A
C1823      C1826   1.450       .  S
C1824      C1828   1.450   1_554  S
C1825      N1832   1.157       .  T
C1826      N1833   1.157   1_554  T
C1827      N1831   1.156       .  T
C1828      N1834   1.157       .  T
C1829      N1838   1.157       .  T
C1830      N1836   1.157       .  T
C1839      C1840   1.410       .  A
C1839      C1844   1.411       .  A
C1839      C1857   1.451       .  S
C1840      C1845   1.498       .  S
C1840      C1841   1.412       .  A
C1841      C1842   1.410       .  A
C1841      C1846   1.452       .  S
C1842      C1843   1.416       .  A
C1842      C1858   1.451   1_556  S
C1843      C1844   1.419       .  A
C1844      C1847   1.452       .  S
C1845      C1848   1.412       .  A
C1845      C1852   1.414       .  A
C1846      N1863   1.157   1_556  T
C1847      N1865   1.157       .  T
C1848      C1849   1.408       .  A
C1848      C1853   1.451       .  S
C1849      C1850   1.410       .  A
C1849      C1855   1.451       .  S
C1850      C1851   1.410       .  A
C1851      C1852   1.412       .  A
C1851      C1854   1.450       .  S
C1852      C1856   1.450   1_556  S
C1853      N1860   1.157       .  T
C1854      N1861   1.157   1_556  T
C1855      N1859   1.157       .  T
C1856      N1862   1.157       .  T
C1857      N1866   1.157       .  T
C1858      N1864   1.157       .  T
C1867      C1868   1.412       .  A
C1867      C1872   1.411       .  A
C1867      C1885   1.450       .  S
C1868      C1873   1.500       .  S
C1868      C1869   1.412       .  A
C1869      C1870   1.412       .  A
C1869      C1874   1.450       .  S
C1870      C1871   1.412       .  A
C1870      C1886   1.450       .  S
C1871      C1872   1.411       .  A
C1872      C1875   1.450       .  S
C1873      C1876   1.405       .  A
C1873      C1880   1.406       .  A
C1874      N1891   1.157       .  T
C1875      N1893   1.157       .  T
C1876      C1877   1.414       .  A
C1876      C1881   1.453       .  S
C1877      C1878   1.428       .  A
C1877      C1883   1.447       .  S
C1878      C1879   1.423       .  A
C1879      C1880   1.414       .  A
C1879      C1882   1.448       .  S
C1880      C1884   1.452       .  S
C1881      N1888   1.157       .  T
C1882      N1889   1.156       .  T
C1883      N1887   1.158       .  T
C1884      N1890   1.157       .  T
C1885      N1894   1.157       .  T
C1886      N1892   1.157       .  T
C1895      C1896   1.409       .  A
C1895      C1900   1.407       .  A
C1895      C1913   1.451       .  S
C1896      C1901   1.496       .  S
C1896      C1897   1.411       .  A
C1897      C1898   1.413       .  A
C1897      C1902   1.450       .  S
C1898      C1899   1.415       .  A
C1898      C1914   1.449       .  S
C1899      C1900   1.417       .  A
C1900      C1903   1.452       .  S
C1901      C1904   1.412       .  A
C1901      C1908   1.409       .  A
C1902      N1919   1.157       .  T
C1903      N1921   1.157       .  T
C1904      C1905   1.410       .  A
C1904      C1909   1.451       .  S
C1905      C1906   1.415       .  A
C1905      C1911   1.451       .  S
C1906      C1907   1.417       .  A
C1907      C1908   1.410       .  A
C1907      C1910   1.451       .  S
C1908      C1912   1.451       .  S
C1909      N1916   1.157       .  T
C1910      N1917   1.157       .  T
C1911      N1915   1.157       .  T
C1912      N1918   1.157       .  T
C1913      N1922   1.157       .  T
C1914      N1920   1.157       .  T
C1923      C1924   1.414       .  A
C1923      C1928   1.412       .  A
C1923      C1941   1.451       .  S
C1924      C1929   1.501       .  S
C1924      C1925   1.413       .  A
C1925      C1926   1.410       .  A
C1925      C1930   1.451       .  S
C1926      C1927   1.412       .  A
C1926      C1942   1.451       .  S
C1927      C1928   1.412       .  A
C1928      C1931   1.451       .  S
C1929      C1932   1.408       .  A
C1929      C1936   1.412       .  A
C1930      N1947   1.157       .  T
C1931      N1949   1.157       .  T
C1932      C1933   1.407       .  A
C1932      C1937   1.453       .  S
C1933      C1934   1.425       .  A
C1933      C1939   1.453       .  S
C1934      C1935   1.421       .  A
C1935      C1936   1.416       .  A
C1935      C1938   1.450       .  S
C1936      C1940   1.451       .  S
C1937      N1944   1.157       .  T
C1938      N1945   1.157       .  T
C1939      N1943   1.158       .  T
C1940      N1946   1.157       .  T
C1941      N1950   1.157       .  T
C1942      N1948   1.157       .  T
C1951      C1952   1.409       .  A
C1951      C1956   1.413       .  A
C1951      C1969   1.451       .  S
C1952      C1957   1.501       .  S
C1952      C1953   1.410       .  A
C1953      C1954   1.413       .  A
C1953      C1958   1.451       .  S
C1954      C1955   1.416       .  A
C1954      C1970   1.449       .  S
C1955      C1956   1.422       .  A
C1956      C1959   1.451       .  S
C1957      C1960   1.410       .  A
C1957      C1964   1.410       .  A
C1958      N1975   1.157       .  T
C1959      N1977   1.157       .  T
C1960      C1961   1.413       .  A
C1960      C1965   1.451       .  S
C1961      C1962   1.420       .  A
C1961      C1967   1.451       .  S
C1962      C1963   1.419       .  A
C1963      C1964   1.413       .  A
C1963      C1966   1.451       .  S
C1964      C1968   1.451       .  S
C1965      N1972   1.157       .  T
C1966      N1973   1.157       .  T
C1967      N1971   1.157       .  T
C1968      N1974   1.157       .  T
C1969      N1978   1.157       .  T
C1970      N1976   1.157       .  T
C1979      C1980   1.411       .  A
C1979      C1984   1.409       .  A
C1979      C1997   1.450       .  S
C1980      C1985   1.497       .  S
C1980      C1981   1.412       .  A
C1981      C1982   1.411       .  A
C1981      C1986   1.450       .  S
C1982      C1983   1.411       .  A
C1982      C1998   1.450       .  S
C1983      C1984   1.410       .  A
C1984      C1987   1.450       .  S
C1985      C1988   1.405       .  A
C1985      C1992   1.406       .  A
C1986      N2003   1.157       .  T
C1987      N2005   1.157       .  T
C1988      C1989   1.414       .  A
C1988      C1993   1.452       .  S
C1989      C1990   1.431       .  A
C1989      C1995   1.452       .  S
C1990      C1991   1.427       .  A
C1991      C1992   1.412       .  A
C1991      C1994   1.451       .  S
C1992      C1996   1.453       .  S
C1993      N2000   1.157       .  T
C1994      N2001   1.158       .  T
C1995      N1999   1.158       .  T
C1996      N2002   1.157       .  T
C1997      N2006   1.157       .  T
C1998      N2004   1.157       .  T
C2007      C2008   1.411       .  A
C2007      C2012   1.415       .  A
C2007      C2025   1.450       .  S
C2008      C2013   1.497       .  S
C2008      C2009   1.409       .  A
C2009      C2010   1.408       .  A
C2009      C2014   1.452       .  S
C2010      C2011   1.417       .  A
C2010      C2026   1.451       .  S
C2011      C2012   1.417       .  A
C2012      C2015   1.450       .  S
C2013      C2016   1.411       .  A
C2013      C2020   1.411       .  A
C2014      N2031   1.157       .  T
C2015      N2033   1.157       .  T
C2016      C2017   1.411       .  A
C2016      C2021   1.451       .  S
C2017      C2018   1.415       .  A
C2017      C2023   1.451       .  S
C2018      C2019   1.415       .  A
C2019      C2020   1.410       .  A
C2019      C2022   1.452       .  S
C2020      C2024   1.450       .  S
C2021      N2028   1.157       .  T
C2022      N2029   1.157       .  T
C2023      N2027   1.157       .  T
C2024      N2030   1.157       .  T
C2025      N2034   1.157       .  T
C2026      N2032   1.157       .  T
C2035      C2036   1.410       .  A
C2035      C2040   1.410       .  A
C2035      C2053   1.451       .  S
C2036      C2041   1.495       .  S
C2036      C2037   1.409       .  A
C2037      C2038   1.411       .  A
C2037      C2042   1.451       .  S
C2038      C2039   1.416       .  A
C2038      C2054   1.450       .  S
C2039      C2040   1.417       .  A
C2040      C2043   1.452       .  S
C2041      C2044   1.406       .  A
C2041      C2048   1.408       .  A
C2042      N2059   1.157       .  T
C2043      N2061   1.157       .  T
C2044      C2045   1.410       .  A
C2044      C2049   1.452       .  S
C2045      C2046   1.418       .  A
C2045      C2051   1.447       .  S
C2046      C2047   1.424       .  A
C2047      C2048   1.412       .  A
C2047      C2050   1.451       .  S
C2048      C2052   1.451       .  S
C2049      N2056   1.157       .  T
C2050      N2057   1.158       .  T
C2051      N2055   1.156       .  T
C2052      N2058   1.157       .  T
C2053      N2062   1.157       .  T
C2054      N2060   1.157       .  T
C2063      C2064   1.403       .  A
C2063      C2068   1.411       .  A
C2063      C2081   1.452       .  S
C2064      C2069   1.493       .  S
C2064      C2065   1.407       .  A
C2065      C2066   1.411       .  A
C2065      C2070   1.453       .  S
C2066      C2067   1.425       .  A
C2066      C2082   1.451       .  S
C2067      C2068   1.430       .  A
C2068      C2071   1.452       .  S
C2069      C2072   1.410       .  A
C2069      C2076   1.411       .  A
C2070      N2087   1.157       .  T
C2071      N2089   1.158       .  T
C2072      C2073   1.409       .  A
C2072      C2077   1.450       .  S
C2073      C2074   1.410       .  A
C2073      C2079   1.451       .  S
C2074      C2075   1.410       .  A
C2075      C2076   1.409       .  A
C2075      C2078   1.451       .  S
C2076      C2080   1.450       .  S
C2077      N2084   1.157       .  T
C2078      N2085   1.157       .  T
C2079      N2083   1.157       .  T
C2080      N2086   1.157       .  T
C2081      N2090   1.157       .  T
C2082      N2088   1.158       .  T
C2091      C2092   1.409       .  A
C2091      C2096   1.407       .  A
C2091      C2109   1.452       .  S
C2092      C2097   1.497       .  S
C2092      C2093   1.411       .  A
C2093      C2094   1.415       .  A
C2093      C2098   1.450       .  S
C2094      C2095   1.417       .  A
C2094      C2110   1.450       .  S
C2095      C2096   1.419       .  A
C2096      C2099   1.453       .  S
C2097      C2100   1.411       .  A
C2097      C2104   1.412       .  A
C2098      N2115   1.157       .  T
C2099      N2117   1.158       .  T
C2100      C2101   1.409       .  A
C2100      C2105   1.451       .  S
C2101      C2102   1.414       .  A
C2101      C2107   1.451       .  S
C2102      C2103   1.413       .  A
C2103      C2104   1.412       .  A
C2103      C2106   1.451       .  S
C2104      C2108   1.450       .  S
C2105      N2112   1.157       .  T
C2106      N2113   1.157       .  T
C2107      N2111   1.157       .  T
C2108      N2114   1.157       .  T
C2109      N2118   1.157       .  T
C2110      N2116   1.158       .  T
C2119      C2120   1.409       .  A
C2119      C2124   1.414       .  A
C2119      C2137   1.451       .  S
C2120      C2125   1.500       .  S
C2120      C2121   1.407       .  A
C2121      C2122   1.413       .  A
C2121      C2126   1.453       .  S
C2122      C2123   1.419       .  A
C2122      C2138   1.444       .  S
C2123      C2124   1.418       .  A
C2124      C2127   1.449       .  S
C2125      C2128   1.411       .  A
C2125      C2132   1.412       .  A
C2126      N2143   1.157       .  T
C2127      N2145   1.157       .  T
C2128      C2129   1.412       .  A
C2128      C2133   1.450       .  S
C2129      C2130   1.413       .  A
C2129      C2135   1.450       .  S
C2130      C2131   1.412       .  A
C2131      C2132   1.411       .  A
C2131      C2134   1.451       .  S
C2132      C2136   1.450       .  S
C2133      N2140   1.157       .  T
C2134      N2141   1.157       .  T
C2135      N2139   1.157       .  T
C2136      N2142   1.157       .  T
C2137      N2146   1.157       .  T
C2138      N2144   1.155       .  T
C2147      C2148   1.413       .  A
C2147      C2152   1.410       .  A
C2147      C2165   1.450       .  S
C2148      C2153   1.497       .  S
C2148      C2149   1.411       .  A
C2149      C2150   1.411       .  A
C2149      C2154   1.450       .  S
C2150      C2151   1.413       .  A
C2150      C2166   1.451       .  S
C2151      C2152   1.411       .  A
C2152      C2155   1.451       .  S
C2153      C2156   1.411       .  A
C2153      C2160   1.409       .  A
C2154      N2171   1.157       .  T
C2155      N2173   1.157       .  T
C2156      C2157   1.414       .  A
C2156      C2161   1.450       .  S
C2157      C2158   1.416       .  A
C2157      C2163   1.450       .  S
C2158      C2159   1.417       .  A
C2159      C2160   1.408       .  A
C2159      C2162   1.452       .  S
C2160      C2164   1.452       .  S
C2161      N2168   1.157       .  T
C2162      N2169   1.157       .  T
C2163      N2167   1.157       .  T
C2164      N2170   1.157       .  T
C2165      N2174   1.157       .  T
C2166      N2172   1.157       .  T
C2175      C2176   1.412       .  A
C2175      C2180   1.411       .  A
C2175      C2193   1.450       .  S
C2176      C2181   1.497       .  S
C2176      C2177   1.412       .  A
C2177      C2178   1.409       .  A
C2177      C2182   1.451       .  S
C2178      C2179   1.411       .  A
C2178      C2194   1.451       .  S
C2179      C2180   1.412       .  A
C2180      C2183   1.451       .  S
C2181      C2184   1.408       .  A
C2181      C2188   1.406       .  A
C2182      N2199   1.157       .  T
C2183      N2201   1.157       .  T
C2184      C2185   1.411       .  A
C2184      C2189   1.453       .  S
C2185      C2186   1.427       .  A
C2185      C2191   1.452       .  S
C2186      C2187   1.429       .  A
C2187      C2188   1.412       .  A
C2187      C2190   1.452       .  S
C2188      C2192   1.452       .  S
C2189      N2196   1.157       .  T
C2190      N2197   1.158       .  T
C2191      N2195   1.158       .  T
C2192      N2198   1.157       .  T
C2193      N2202   1.157       .  T
C2194      N2200   1.157       .  T
C2203      C2204   1.412       .  A
C2203      C2208   1.413       .  A
C2203      C2221   1.451       .  S
C2204      C2209   1.504       .  S
C2204      C2205   1.412       .  A
C2205      C2206   1.414       .  A
C2205      C2210   1.450       .  S
C2206      C2207   1.414       .  A
C2206      C2222   1.450       .  S
C2207      C2208   1.413       .  A
C2208      C2211   1.449       .  S
C2209      C2212   1.410       .  A
C2209      C2216   1.411       .  A
C2210      N2227   1.157       .  T
C2211      N2229   1.157       .  T
C2212      C2213   1.413       .  A
C2212      C2217   1.450       .  S
C2213      C2214   1.418       .  A
C2213      C2219   1.451       .  S
C2214      C2215   1.414       .  A
C2215      C2216   1.414       .  A
C2215      C2218   1.447       .  S
C2216      C2220   1.451       .  S
C2217      N2224   1.157       .  T
C2218      N2225   1.156       .  T
C2219      N2223   1.157       .  T
C2220      N2226   1.157       .  T
C2221      N2230   1.157       .  T
C2222      N2228   1.157   1_455  T
C2231      C2232   1.409       .  A
C2231      C2236   1.415       .  A
C2231      C2249   1.450       .  S
C2232      C2237   1.499       .  S
C2232      C2233   1.408       .  A
C2233      C2234   1.411       .  A
C2233      C2238   1.452       .  S
C2234      C2235   1.418       .  A
C2234      C2250   1.448       .  S
C2235      C2236   1.421       .  A
C2236      C2239   1.451       .  S
C2237      C2240   1.410       .  A
C2237      C2244   1.409       .  A
C2238      N2255   1.157       .  T
C2239      N2257   1.157       .  T
C2240      C2241   1.413       .  A
C2240      C2245   1.451       .  S
C2241      C2242   1.418       .  A
C2241      C2247   1.451       .  S
C2242      C2243   1.418       .  A
C2243      C2244   1.412       .  A
C2243      C2246   1.451       .  S
C2244      C2248   1.451       .  S
C2245      N2252   1.157       .  T
C2246      N2253   1.157       .  T
C2247      N2251   1.157       .  T
C2248      N2254   1.157       .  T
C2249      N2258   1.157       .  T
C2250      N2256   1.156       .  T
C2259      C2260   1.407       .  A
C2259      C2264   1.415       .  A
C2259      C2277   1.452       .  S
C2260      C2265   1.504       .  S
C2260      C2261   1.408       .  A
C2261      C2262   1.416       .  A
C2261      C2266   1.451       .  S
C2262      C2263   1.425       .  A
C2262      C2278   1.449       .  S
C2263      C2264   1.424       .  A
C2264      C2267   1.447       .  S
C2265      C2268   1.411       .  A
C2265      C2272   1.412       .  A
C2266      N2283   1.157       .  T
C2267      N2285   1.156       .  T
C2268      C2269   1.413       .  A
C2268      C2273   1.451       .  S
C2269      C2270   1.417       .  A
C2269      C2275   1.451       .  S
C2270      C2271   1.417       .  A
C2271      C2272   1.415       .  A
C2271      C2274   1.451       .  S
C2272      C2276   1.450       .  S
C2273      N2280   1.157       .  T
C2274      N2281   1.157       .  T
C2275      N2279   1.157       .  T
C2276      N2282   1.157       .  T
C2277      N2286   1.157       .  T
C2278      N2284   1.157       .  T
C2287      C2288   1.408       .  A
C2287      C2292   1.418       .  A
C2287      C2305   1.453       .  S
C2288      C2293   1.518       .  S
C2288      C2289   1.409       .  A
C2289      C2290   1.421       .  A
C2289      C2294   1.452       .  S
C2290      C2291   1.433       .  A
C2290      C2306   1.450       .  S
C2291      C2292   1.432       .  A
C2292      C2295   1.447       .  S
C2293      C2296   1.399       .  A
C2293      C2300   1.403       .  A
C2294      N2311   1.157       .  T
C2295      N2313   1.157       .  T
C2296      C2297   1.424       .  A
C2296      C2301   1.457       .  S
C2297      C2298   1.454       .  A
C2297      C2303   1.445   1_556  S
C2298      C2299   1.449       .  A
C2299      C2300   1.424       .  A
C2299      C2302   1.450   1_565  S
C2300      C2304   1.454       .  S
C2301      N2308   1.157       .  T
C2302      N2309   1.157       .  T
C2303      N2307   1.156   1_455  T
C2304      N2310   1.157       .  T
C2305      N2314   1.157       .  T
C2306      N2312   1.157       .  T
C2315      C2316   1.408       .  A
C2315      C2320   1.415       .  A
C2315      C2333   1.450       .  S
C2316      C2321   1.500       .  S
C2316      C2317   1.406       .  A
C2317      C2318   1.412       .  A
C2317      C2322   1.453       .  S
C2318      C2319   1.421       .  A
C2318      C2334   1.443       .  S
C2319      C2320   1.422       .  A
C2320      C2323   1.450       .  S
C2321      C2324   1.409       .  A
C2321      C2328   1.411       .  A
C2322      N2339   1.157       .  T
C2323      N2341   1.157       .  T
C2324      C2325   1.413       .  A
C2324      C2329   1.451       .  S
C2325      C2326   1.416       .  A
C2325      C2331   1.449       .  S
C2326      C2327   1.418       .  A
C2327      C2328   1.413       .  A
C2327      C2330   1.451       .  S
C2328      C2332   1.451       .  S
C2329      N2336   1.157       .  T
C2330      N2337   1.157       .  T
C2331      N2335   1.157       .  T
C2332      N2338   1.157       .  T
C2333      N2342   1.157       .  T
C2334      N2340   1.155       .  T
C2343      C2344   1.407       .  A
C2343      C2348   1.410       .  A
C2343      C2361   1.451       .  S
C2344      C2349   1.494       .  S
C2344      C2345   1.408       .  A
C2345      C2346   1.410       .  A
C2345      C2350   1.452       .  S
C2346      C2347   1.418       .  A
C2346      C2362   1.448       .  S
C2347      C2348   1.422       .  A
C2348      C2351   1.452       .  S
C2349      C2352   1.407       .  A
C2349      C2356   1.408       .  A
C2350      N2367   1.157       .  T
C2351      N2369   1.157       .  T
C2352      C2353   1.410       .  A
C2352      C2357   1.451       .  S
C2353      C2354   1.421       .  A
C2353      C2359   1.452       .  S
C2354      C2355   1.420       .  A
C2355      C2356   1.410       .  A
C2355      C2358   1.449       .  S
C2356      C2360   1.453       .  S
C2357      N2364   1.157       .  T
C2358      N2365   1.157       .  T
C2359      N2363   1.157       .  T
C2360      N2366   1.157       .  T
C2361      N2370   1.157       .  T
C2362      N2368   1.156       .  T
C2371      C2372   1.408       .  A
C2371      C2376   1.413       .  A
C2371      C2389   1.451       .  S
C2372      C2377   1.501       .  S
C2372      C2373   1.410       .  A
C2373      C2374   1.415       .  A
C2373      C2378   1.450       .  S
C2374      C2375   1.418       .  A
C2374      C2390   1.449       .  S
C2375      C2376   1.416       .  A
C2376      C2379   1.446       .  S
C2377      C2380   1.413       .  A
C2377      C2384   1.411       .  A
C2378      N2395   1.157       .  T
C2379      N2397   1.156       .  T
C2380      C2381   1.412       .  A
C2380      C2385   1.450       .  S
C2381      C2382   1.413       .  A
C2381      C2387   1.451       .  S
C2382      C2383   1.414       .  A
C2383      C2384   1.413       .  A
C2383      C2386   1.450       .  S
C2384      C2388   1.450       .  S
C2385      N2392   1.157       .  T
C2386      N2393   1.157       .  T
C2387      N2391   1.157       .  T
C2388      N2394   1.157       .  T
C2389      N2398   1.157       .  T
C2390      N2396   1.157       .  T
C2399      C2400   1.408       .  A
C2399      C2404   1.416       .  A
C2399      C2417   1.451       .  S
C2400      C2405   1.513       .  S
C2400      C2401   1.408       .  A
C2401      C2402   1.418       .  A
C2401      C2406   1.452       .  S
C2402      C2403   1.433       .  A
C2402      C2418   1.451       .  S
C2403      C2404   1.426       .  A
C2404      C2407   1.447       .  S
C2405      C2408   1.404       .  A
C2405      C2412   1.400       .  A
C2406      N2423   1.157       .  T
C2407      N2425   1.156       .  T
C2408      C2409   1.423       .  A
C2408      C2413   1.454       .  S
C2409      C2410   1.448       .  A
C2409      C2415   1.449   1_554  S
C2410      C2411   1.451       .  A
C2411      C2412   1.420       .  A
C2411      C2414   1.446   1_565  S
C2412      C2416   1.455       .  S
C2413      N2420   1.157   1_554  T
C2414      N2421   1.156       .  T
C2415      N2419   1.157       .  T
C2416      N2422   1.157       .  T
C2417      N2426   1.157       .  T
C2418      N2424   1.157       .  T
C2427      C2428   1.415       .  A
C2427      C2432   1.411       .  A
C2427      C2445   1.451       .  S
C2428      C2433   1.505       .  S
C2428      C2429   1.414       .  A
C2429      C2430   1.413       .  A
C2429      C2434   1.450       .  S
C2430      C2431   1.411       .  A
C2430      C2446   1.450       .  S
C2431      C2432   1.410       .  A
C2432      C2435   1.450       .  S
C2433      C2436   1.407       .  A
C2433      C2440   1.408       .  A
C2434      N2451   1.157       .  T
C2435      N2453   1.157       .  T
C2436      C2437   1.414       .  A
C2436      C2441   1.454       .  S
C2437      C2438   1.427       .  A
C2437      C2443   1.447       .  S
C2438      C2439   1.426       .  A
C2439      C2440   1.416       .  A
C2439      C2442   1.450       .  S
C2440      C2444   1.452       .  S
C2441      N2448   1.157       .  T
C2442      N2449   1.157       .  T
C2443      N2447   1.157       .  T
C2444      N2450   1.157       .  T
C2445      N2454   1.157       .  T
C2446      N2452   1.157       .  T
C2455      C2456   1.413       .  A
C2455      C2460   1.413       .  A
C2455      C2473   1.450       .  S
C2456      C2461   1.503       .  S
C2456      C2457   1.413       .  A
C2457      C2458   1.413       .  A
C2457      C2462   1.449       .  S
C2458      C2459   1.410       .  A
C2458      C2474   1.450       .  S
C2459      C2460   1.411       .  A
C2460      C2463   1.451       .  S
C2461      C2464   1.413       .  A
C2461      C2468   1.413       .  A
C2462      N2479   1.157       .  T
C2463      N2481   1.157       .  T
C2464      C2465   1.414       .  A
C2464      C2469   1.450       .  S
C2465      C2466   1.412       .  A
C2465      C2471   1.450   1_556  S
C2466      C2467   1.412       .  A
C2467      C2468   1.413       .  A
C2467      C2470   1.451       .  S
C2468      C2472   1.450       .  S
C2469      N2476   1.157       .  T
C2470      N2477   1.157       .  T
C2471      N2475   1.157       .  T
C2472      N2478   1.157       .  T
C2473      N2482   1.157       .  T
C2474      N2480   1.157       .  T
C2483      C2484   1.412       .  A
C2483      C2488   1.414       .  A
C2483      C2501   1.450       .  S
C2484      C2489   1.504       .  S
C2484      C2485   1.413       .  A
C2485      C2486   1.413       .  A
C2485      C2490   1.450       .  S
C2486      C2487   1.413       .  A
C2486      C2502   1.451       .  S
C2487      C2488   1.414       .  A
C2488      C2491   1.451       .  S
C2489      C2492   1.408       .  A
C2489      C2496   1.407       .  A
C2490      N2507   1.157       .  T
C2491      N2509   1.157       .  T
C2492      C2493   1.416       .  A
C2492      C2497   1.453       .  S
C2493      C2494   1.424       .  A
C2493      C2499   1.447       .  S
C2494      C2495   1.426       .  A
C2495      C2496   1.415       .  A
C2495      C2498   1.449       .  S
C2496      C2500   1.452       .  S
C2497      N2504   1.157       .  T
C2498      N2505   1.157       .  T
C2499      N2503   1.157       .  T
C2500      N2506   1.157       .  T
C2501      N2510   1.157       .  T
C2502      N2508   1.157       .  T
C2511      C2512   1.409       .  A
C2511      C2516   1.418       .  A
C2511      C2529   1.451       .  S
C2512      C2517   1.517       .  S
C2512      C2513   1.410       .  A
C2513      C2514   1.420       .  A
C2513      C2518   1.451       .  S
C2514      C2515   1.430       .  A
C2514      C2530   1.450       .  S
C2515      C2516   1.430       .  A
C2516      C2519   1.450       .  S
C2517      C2520   1.402       .  A
C2517      C2524   1.399       .  A
C2518      N2535   1.157       .  T
C2519      N2537   1.158       .  T
C2520      C2521   1.424       .  A
C2520      C2525   1.455       .  S
C2521      C2522   1.451       .  A
C2521      C2527   1.448   1_556  S
C2522      C2523   1.455       .  A
C2523      C2524   1.426       .  A
C2523      C2526   1.447   1_545  S
C2524      C2528   1.455       .  S
C2525      N2532   1.157       .  T
C2526      N2533   1.157       .  T
C2527      N2531   1.157       .  T
C2528      N2534   1.157       .  T
C2529      N2538   1.157       .  T
C2530      N2536   1.157       .  T
C2539      C2540   1.412       .  A
C2539      C2544   1.413       .  A
C2539      C2557   1.451       .  S
C2540      C2545   1.502       .  S
C2540      C2541   1.412       .  A
C2541      C2542   1.412       .  A
C2541      C2546   1.450       .  S
C2542      C2543   1.413       .  A
C2542      C2558   1.450       .  S
C2543      C2544   1.414       .  A
C2544      C2547   1.451       .  S
C2545      C2548   1.409       .  A
C2545      C2552   1.407       .  A
C2546      N2563   1.157       .  T
C2547      N2565   1.157       .  T
C2548      C2549   1.414       .  A
C2548      C2553   1.453       .  S
C2549      C2550   1.422       .  A
C2549      C2555   1.446       .  S
C2550      C2551   1.422       .  A
C2551      C2552   1.413       .  A
C2551      C2554   1.449       .  S
C2552      C2556   1.451       .  S
C2553      N2560   1.157       .  T
C2554      N2561   1.157       .  T
C2555      N2559   1.157       .  T
C2556      N2562   1.157       .  T
C2557      N2566   1.157       .  T
C2558      N2564   1.157       .  T
C2567      C2568   1.406       .  A
C2567      C2572   1.416       .  A
C2567      C2585   1.453       .  S
C2568      C2573   1.504       .  S
C2568      C2569   1.406       .  A
C2569      C2570   1.416       .  A
C2569      C2574   1.452       .  S
C2570      C2571   1.429       .  A
C2570      C2586   1.450       .  S
C2571      C2572   1.427       .  A
C2572      C2575   1.447       .  S
C2573      C2576   1.410       .  A
C2573      C2580   1.411       .  A
C2574      N2591   1.157       .  T
C2575      N2593   1.157       .  T
C2576      C2577   1.414       .  A
C2576      C2581   1.450       .  S
C2577      C2578   1.417       .  A
C2577      C2583   1.451       .  S
C2578      C2579   1.417       .  A
C2579      C2580   1.414       .  A
C2579      C2582   1.451       .  S
C2580      C2584   1.451       .  S
C2581      N2588   1.157       .  T
C2582      N2589   1.157       .  T
C2583      N2587   1.157       .  T
C2584      N2590   1.157       .  T
C2585      N2594   1.157       .  T
C2586      N2592   1.157       .  T
C2595      C2596   1.413       .  A
C2595      C2600   1.413       .  A
C2595      C2613   1.450       .  S
C2596      C2601   1.504       .  S
C2596      C2597   1.413       .  A
C2597      C2598   1.414       .  A
C2597      C2602   1.449       .  S
C2598      C2599   1.412       .  A
C2598      C2614   1.451       .  S
C2599      C2600   1.411       .  A
C2600      C2603   1.450       .  S
C2601      C2604   1.414       .  A
C2601      C2608   1.413       .  A
C2602      N2619   1.157       .  T
C2603      N2621   1.157       .  T
C2604      C2605   1.413       .  A
C2604      C2609   1.450       .  S
C2605      C2606   1.412       .  A
C2605      C2611   1.451       .  S
C2606      C2607   1.412       .  A
C2607      C2608   1.414       .  A
C2607      C2610   1.450       .  S
C2608      C2612   1.449       .  S
C2609      N2616   1.157       .  T
C2610      N2617   1.157   1_455  T
C2611      N2615   1.157       .  T
C2612      N2618   1.157       .  T
C2613      N2622   1.157       .  T
C2614      N2620   1.157       .  T
C2623      C2624   1.408       .  A
C2623      C2628   1.421       .  A
C2623      C2641   1.454       .  S
C2624      C2629   1.518       .  S
C2624      C2625   1.409       .  A
C2625      C2626   1.418       .  A
C2625      C2630   1.450       .  S
C2626      C2627   1.432       .  A
C2626      C2642   1.452       .  S
C2627      C2628   1.435       .  A
C2628      C2631   1.445       .  S
C2629      C2632   1.402       .  A
C2629      C2636   1.402       .  A
C2630      N2647   1.157       .  T
C2631      N2649   1.158       .  T
C2632      C2633   1.424       .  A
C2632      C2637   1.454       .  S
C2633      C2634   1.452       .  A
C2633      C2639   1.449   1_545  S
C2634      C2635   1.450       .  A
C2635      C2636   1.423       .  A
C2635      C2638   1.445   1_554  S
C2636      C2640   1.455       .  S
C2637      N2644   1.157   1_545  T
C2638      N2645   1.157   1_455  T
C2639      N2643   1.157       .  T
C2640      N2646   1.157       .  T
C2641      N2650   1.157       .  T
C2642      N2648   1.157       .  T
