geometry optimzed in LAMMPS
_audit_creation_date              2020-11-30 
_audit_creation_method            'lammps2cif' 
_symmetry_space_group_name_H-M    'P1' 
_symmetry_Int_Tables_number       1 
_symmetry_cell_setting            triclinic 
loop_ 
_symmetry_equiv_pos_as_xyz 
  x,y,z 
_cell_length_a                    73.30319244 
_cell_length_b                    40.84359565393606 
_cell_length_c                    45.166979106797044 
_cell_angle_alpha                 90.13023998140977 
_cell_angle_beta                  89.75346058817605 
_cell_angle_gamma                 90.04552693504955 
loop_ 
_atom_site_label 
_atom_site_type_symbol 
_atom_site_fract_x 
_atom_site_fract_y 
_atom_site_fract_z 
_atom_site_charge 
O1          O  0.01970221  0.46890090  0.76272752    -0.72900
O2          O  0.98517454  0.03952209  0.77372670    -0.73900
O3          O  0.98086648  0.47149849  0.76428303    -0.62500
O4          O  0.02375593  0.03428490  0.77108097    -0.70900
O5          O  0.02209024  0.03949019  0.72278296    -0.70500
O6          O  0.97981247  0.47136007  0.71515804    -0.61700
O7          O  0.98340671  0.04122114  0.72470538    -0.74200
O8          O  0.01859172  0.46795725  0.71367640    -0.73000
Cu9        Cu  0.00345912  0.00219324  0.77242022     1.04600
Cu10       Cu  0.00041388  0.50444622  0.71258987     1.04300
C11         C  0.02516042  0.45723024  0.73791340     0.93300
C12         C  0.97859448  0.05198112  0.75007450     0.92400
C13         C  0.97397615  0.46096403  0.74018618     0.84600
C14         C  0.02939002  0.04775827  0.74740278     0.90800
C15         C  0.14703601  0.24565877  0.70470936     0.86500
C16         C  0.13412169  0.21831576  0.71540503    -0.53700
C17         C  0.12434176  0.22526514  0.74049829     0.09400
C18         C  0.12799946  0.26018639  0.75250247     0.20400
C19         C  0.13372891  0.27503239  0.70115003    -0.54400
C20         C  0.12381197  0.28295809  0.72609869     0.09500
C21         C  0.15854101  0.25443322  0.73167081    -0.54000
C22         C  0.14895180  0.26264055  0.75649532     0.10100
H23         H  0.13257141  0.19526631  0.70362139     0.14600
H24         H  0.12002392  0.26603908  0.77273710     0.00400
H25         H  0.13116758  0.28725153  0.68046440     0.14900
H26         H  0.17335570  0.25514012  0.73084392     0.14700
C27         C  0.85703312  0.24817516  0.80132416     0.86500
C28         C  0.87025708  0.22074664  0.79311501    -0.53700
C29         C  0.88089838  0.22586761  0.76873193     0.09400
C30         C  0.87531721  0.25769213  0.75206421     0.20400
C31         C  0.86868107  0.28038345  0.80048203    -0.54400
C32         C  0.87863797  0.28495594  0.77481630     0.09500
C33         C  0.84500146  0.25212742  0.77428778    -0.54000
C34         C  0.85403230  0.25711607  0.74846715     0.10100
H35         H  0.87143787  0.19893342  0.80665138     0.14600
H36         H  0.88296583  0.26223204  0.73149106     0.00400
H37         H  0.86820976  0.29943438  0.81704572     0.14900
H38         H  0.83019859  0.25315179  0.77575558     0.14700
C39         C  0.64616865  0.00416986  0.79870446     0.86500
C40         C  0.63499440  0.03482491  0.79163771    -0.53700
C41         C  0.62166171  0.03118411  0.77095704     0.09400
C42         C  0.62128084  0.49427823  0.76120237     0.20400
C43         C  0.63085069  0.47765677  0.81034834    -0.54400
C44         C  0.61829978  0.47191725  0.78836545     0.09500
C45         C  0.65379879  0.49148351  0.77275421    -0.54000
C46         C  0.64123370  0.48750420  0.75084911     0.10100
H47         H  0.63661938  0.05746521  0.80404003     0.14600
H48         H  0.61104385  0.48989612  0.74369623     0.00400
H49         H  0.62905782  0.46674727  0.83189164     0.14900
H50         H  0.66827966  0.48742654  0.76908885     0.14700
O51         O  0.47348483  0.28080021  0.77244094    -0.72900
O52         O  0.51320343  0.21418817  0.78719215    -0.73900
O53         O  0.51189176  0.28372718  0.78549806    -0.62500
O54         O  0.47509544  0.21213497  0.77463213    -0.70900
O55         O  0.48118993  0.21125377  0.72643427    -0.70500
O56         O  0.51793070  0.28356670  0.73790958    -0.61700
O57         O  0.51935928  0.21414794  0.73902705    -0.74200
O58         O  0.48011637  0.28038564  0.72465733    -0.73000
Cu59       Cu  0.49323982  0.24779955  0.78163096     1.04600
Cu60       Cu  0.49989822  0.24725763  0.73038228     1.04300
C61         C  0.47023144  0.29057468  0.74608523     0.93300
C62         C  0.52257579  0.20382729  0.76514916     0.92400
C63         C  0.52095877  0.29519978  0.76368204     0.84600
C64         C  0.47203229  0.20097916  0.74871863     0.90800
C65         C  0.35106011  0.99870518  0.69550999     0.86500
C66         C  0.36253824  0.02946040  0.69991287    -0.53700
C67         C  0.37520103  0.02780038  0.72173271     0.09400
C68         C  0.37475057  0.49301406  0.73504889     0.20400
C69         C  0.36483172  0.47108046  0.68773104    -0.54400
C70         C  0.37701460  0.46740450  0.71022059     0.09500
C71         C  0.34269785  0.49353567  0.72101598    -0.54000
C72         C  0.35439869  0.48943695  0.74468880     0.10100
H73         H  0.36073036  0.05118118  0.68640047     0.14600
H74         H  0.38490511  0.49041672  0.75285276     0.00400
H75         H  0.36315242  0.45193287  0.67139053     0.14900
H76         H  0.32804843  0.49027015  0.72297328     0.14700
N77         N  0.25693794  0.36897510  0.02255009    -0.36600
N78         N  0.28192738  0.39411374  0.97760526    -0.57100
N79         N  0.25751168  0.37106795  0.93229938    -0.36600
N80         N  0.23226174  0.34692589  0.97715494    -0.57100
C81         C  0.26822203  0.38762554  0.03921343     0.27000
C82         C  0.24159719  0.36345522  0.03867781     0.27000
C83         C  0.26836468  0.39152549  0.91654121     0.27000
C84         C  0.24233184  0.36559329  0.91609915     0.27000
C85         C  0.29272802  0.39630554  0.00168689     0.35600
C86         C  0.29288593  0.39765609  0.95364015     0.35600
C87         C  0.22457635  0.33203676  0.00080762     0.35600
C88         C  0.22514334  0.33254785  0.95287389     0.35600
C89         C  0.26000623  0.39387813  0.06637428    -0.21900
C90         C  0.24315087  0.37887936  0.06593086    -0.21900
C91         C  0.25987270  0.39931464  0.89007007    -0.21900
C92         C  0.24350478  0.38270313  0.88968986    -0.21900
C93         C  0.31067788  0.40139325  0.99300705    -0.22900
C94         C  0.31080374  0.40190025  0.96252840    -0.22900
C95         C  0.21253348  0.30797257  0.99151466    -0.22900
C96         C  0.21283436  0.30839612  0.96106770    -0.22900
C97         C  0.28624260  0.39692504  0.03124610    -0.18300
C98         C  0.22712387  0.34219227  0.03044833    -0.18300
C99         C  0.22822937  0.34342960  0.92364320    -0.18300
C100        C  0.28645826  0.40043912  0.92421670    -0.18300
H101        H  0.26565544  0.40742603  0.08480181     0.14600
H102        H  0.23337287  0.37856165  0.08395302     0.14600
H103        H  0.26516306  0.41459182  0.87246218     0.14600
H104        H  0.23371660  0.38278904  0.87181556     0.14600
H105        H  0.32240138  0.40496097  0.00713579     0.12900
H106        H  0.32261034  0.40602466  0.94855539     0.12900
H107        H  0.20407364  0.29237902  0.00522060     0.12900
H108        H  0.20463224  0.29322898  0.94662671     0.12900
H109        H  0.26053246  0.35726773  0.00291212     0.26200
H110        H  0.26125182  0.35810320  0.95111739     0.26200
O111        O  0.02101956  0.47426893  0.28156989    -0.72900
O112        O  0.98123254  0.04732190  0.29185406    -0.73900
O113        O  0.98255695  0.47355065  0.29290055    -0.62500
O114        O  0.01984849  0.04687935  0.28066815    -0.70900
O115        O  0.01586297  0.04500874  0.23199158    -0.70500
O116        O  0.97658042  0.47531472  0.24494861    -0.61700
O117        O  0.97782101  0.05104852  0.24336392    -0.74200
O118        O  0.01478040  0.47076838  0.23386561    -0.73000
Cu119      Cu  0.00038954  0.01231187  0.28742819     1.04600
Cu120      Cu  0.99503318  0.01339813  0.23593993     1.04300
C121        C  0.02369758  0.46076660  0.25644648     0.93300
C122        C  0.97346671  0.06032278  0.26951985     0.92400
C123        C  0.97323869  0.46375354  0.27061444     0.84600
C124        C  0.02417572  0.05632734  0.25456796     0.90800
C125        C  0.14559215  0.26596252  0.20228652     0.86500
C126        C  0.15631655  0.26269005  0.23117034    -0.53700
C127        C  0.14619179  0.25453198  0.25555530     0.09400
C128        C  0.12540187  0.25252230  0.24902008     0.20400
C129        C  0.13441315  0.23361642  0.20010487    -0.54400
C130        C  0.12373378  0.22631106  0.22435222     0.09500
C131        C  0.13060797  0.29138561  0.20905425    -0.54000
C132        C  0.12030696  0.28514699  0.23367695     0.10100
H133        H  0.17110305  0.26438836  0.23178063     0.14600
H134        H  0.11676671  0.24748427  0.26869321     0.00400
H135        H  0.13419240  0.21842801  0.18065011     0.14900
H136        H  0.12820690  0.31270761  0.19529042     0.14700
C137        C  0.85157839  0.25597294  0.24487488     0.86500
C138        C  0.83988078  0.25971068  0.27295751    -0.53700
C139        C  0.84932698  0.26282386  0.29883812     0.09400
C140        C  0.87027502  0.26213205  0.29409779     0.20400
C141        C  0.86472612  0.28593080  0.24557966    -0.54400
C142        C  0.87434810  0.28983475  0.27164697     0.09500
C143        C  0.86490423  0.22806606  0.25088302    -0.54000
C144        C  0.87456124  0.23066683  0.27626053     0.10100
H145        H  0.82508251  0.26058183  0.27215887     0.14600
H146        H  0.87768593  0.26371116  0.31529296     0.00400
H147        H  0.86779752  0.30100279  0.22657440     0.14900
H148        H  0.86766427  0.20879251  0.23482876     0.14700
C149        C  0.65095992  0.99292755  0.24066476     0.86500
C150        C  0.66109223  0.48710732  0.27146713    -0.53700
C151        C  0.65031544  0.48208822  0.29566533     0.09400
C152        C  0.62985220  0.48556950  0.28910608     0.20400
C153        C  0.63668003  0.46407375  0.24041401    -0.54400
C154        C  0.62587671  0.45921367  0.26532135     0.09500
C155        C  0.63922223  0.02295642  0.24741752    -0.54000
C156        C  0.62786646  0.01974033  0.27105970     0.10100
H157        H  0.67571965  0.48786193  0.27388674     0.14600
H158        H  0.62237979  0.48348216  0.31006397     0.00400
H159        H  0.63491280  0.45060233  0.21999833     0.14900
H160        H  0.63898230  0.04453958  0.23340388     0.14700
C161        C  0.36124151  0.47381675  0.20776454     0.86500
C162        C  0.34726036  0.48275200  0.23146300    -0.53700
C163        C  0.35338970  0.98977341  0.25829967     0.09400
C164        C  0.37478426  0.98888120  0.25867443     0.20400
C165        C  0.37241780  0.00580366  0.20739849    -0.54400
C166        C  0.38043524  0.01304162  0.23424650     0.09500
C167        C  0.37230638  0.44603373  0.22137720    -0.54000
C168        C  0.38103083  0.45309280  0.24720970     0.10100
H169        H  0.33276655  0.48503497  0.22691144     0.14600
H170        H  0.38088629  0.99551849  0.28013374     0.00400
H171        H  0.37386368  0.02236557  0.18892877     0.14900
H172        H  0.37371322  0.42253254  0.21032151     0.14700
O173        O  0.48262071  0.26956207  0.29999175    -0.72900
O174        O  0.52103359  0.20061349  0.29680804    -0.73900
O175        O  0.52138976  0.27024519  0.29919812    -0.62500
O176        O  0.48167739  0.20020922  0.29497381    -0.70900
O177        O  0.48331188  0.20281286  0.24634161    -0.70500
O178        O  0.52143642  0.27177165  0.25015935    -0.61700
O179        O  0.52166306  0.20216539  0.24794873    -0.74200
O180        O  0.48250325  0.27223450  0.25088989    -0.73000
Cu181      Cu  0.50168175  0.23496927  0.29948144     1.04600
Cu182      Cu  0.50224463  0.23738047  0.24718687     1.04300
C183        C  0.47647603  0.28179779  0.27615885     0.93300
C184        C  0.52755746  0.19028799  0.27230148     0.92400
C185        C  0.52751586  0.28214072  0.27484357     0.84600
C186        C  0.47608953  0.19066910  0.26947332     0.90800
N187        N  0.74680492  0.13879220  0.97536863    -0.36600
N188        N  0.76880217  0.17011229  0.02093634    -0.57100
N189        N  0.75007979  0.13295313  0.06594583    -0.36600
N190        N  0.72855703  0.10007662  0.02061365    -0.57100
C191        C  0.76017656  0.15243036  0.95863962     0.27000
C192        C  0.73799387  0.11668287  0.95818663     0.27000
C193        C  0.76426947  0.14503366  0.08168591     0.27000
C194        C  0.74272292  0.10813835  0.08178541     0.27000
C195        C  0.77401365  0.18799696  0.99732926     0.35600
C196        C  0.77518823  0.18585179  0.04504201     0.35600
C197        C  0.71806381  0.09195390  0.99709423     0.35600
C198        C  0.71963154  0.08947670  0.04510033     0.35600
C199        C  0.75962251  0.13930249  0.93032566    -0.21900
C200        C  0.74550982  0.11709004  0.92992875    -0.21900
C201        C  0.76593783  0.12771048  0.10789656    -0.21900
C202        C  0.75231683  0.10442322  0.10797421    -0.21900
C203        C  0.78368345  0.21537889  0.00641196    -0.22900
C204        C  0.78432186  0.21414864  0.03675223    -0.22900
C205        C  0.70255941  0.07560868  0.00666514    -0.22900
C206        C  0.70344244  0.07437430  0.03703851    -0.22900
C207        C  0.77231030  0.17751603  0.96776111    -0.18300
C208        C  0.72289302  0.09714964  0.96701648    -0.18300
C209        C  0.72660042  0.09085831  0.07436871    -0.18300
C210        C  0.77484334  0.17278421  0.07389288    -0.18300
H211        H  0.76831478  0.14541051  0.91170439     0.14600
H212        H  0.74135193  0.10282581  0.91090896     0.14600
H213        H  0.77572872  0.13183681  0.12538831     0.14600
H214        H  0.74955585  0.08713390  0.12556148     0.14600
H215        H  0.79008776  0.23371002  0.99255474     0.12900
H216        H  0.79135742  0.23133667  0.05097253     0.12900
H217        H  0.69178423  0.06539784  0.99318618     0.12900
H218        H  0.69349161  0.06294956  0.05146480     0.12900
H219        H  0.74278750  0.14633547  0.99636506     0.26200
H220        H  0.74424999  0.14370709  0.04744143     0.26200
N221        N  0.24598774  0.12117986  0.42942484    -0.36600
N222        N  0.26623742  0.08188236  0.47241630    -0.57100
N223        N  0.24524452  0.11191555  0.52016505    -0.36600
N224        N  0.22383517  0.14854683  0.47732243    -0.57100
C225        C  0.25561494  0.10159006  0.41080260     0.27000
C226        C  0.23256425  0.13566289  0.41351410     0.27000
C227        C  0.25436632  0.08872151  0.53550438     0.27000
C228        C  0.23189233  0.12371497  0.53803791     0.27000
C229        C  0.27605796  0.07452943  0.44788097     0.35600
C230        C  0.27568812  0.06991159  0.49568474     0.35600
C231        C  0.21767556  0.16699241  0.45463343     0.35600
C232        C  0.21771586  0.16285384  0.50251236     0.35600
C233        C  0.24852124  0.10439164  0.38248699    -0.21900
C234        C  0.23388631  0.12548345  0.38426697    -0.21900
C235        C  0.24679718  0.08588098  0.56357309    -0.21900
C236        C  0.23256917  0.10783085  0.56512431    -0.21900
C237        C  0.29151220  0.05692864  0.45563238    -0.22900
C238        C  0.29132913  0.05421705  0.48586158    -0.22900
C239        C  0.20751127  0.19302784  0.46546873    -0.22900
C240        C  0.20755770  0.19043538  0.49577708    -0.22900
C241        C  0.27100709  0.08213870  0.41840234    -0.18300
C242        C  0.21982540  0.15925979  0.42422489    -0.18300
C243        C  0.22006000  0.15015916  0.53140151    -0.18300
C244        C  0.27017281  0.07185606  0.52569046    -0.18300
H245        H  0.25332613  0.09242907  0.36253259     0.14600
H246        H  0.22538528  0.13291382  0.36593972     0.14600
H247        H  0.25121459  0.06994379  0.58125783     0.14600
H248        H  0.22395409  0.11210882  0.58426598     0.14600
H249        H  0.30187821  0.04694112  0.44108262     0.12900
H250        H  0.30147986  0.04181718  0.49906594     0.12900
H251        H  0.20057943  0.21170321  0.45281972     0.12900
H252        H  0.20065788  0.20671665  0.51108505     0.12900
H253        H  0.24955002  0.12679730  0.45102207     0.26200
H254        H  0.24940108  0.12207348  0.50023545     0.26200
N255        N  0.74336020  0.35951058  0.48420452    -0.36600
N256        N  0.72182086  0.39520288  0.52742734    -0.57100
N257        N  0.74595112  0.37269867  0.57353565    -0.36600
N258        N  0.76724645  0.33553386  0.52953100    -0.57100
C259        C  0.72850852  0.36726263  0.46804875     0.27000
C260        C  0.75252378  0.33586548  0.46932538     0.27000
C261        C  0.73171545  0.38406222  0.58995861     0.27000
C262        C  0.75635995  0.35372939  0.59131265     0.27000
C263        C  0.71509758  0.40833637  0.50234440     0.35600
C264        C  0.71594977  0.41430742  0.54996812     0.35600
C265        C  0.77736178  0.32767938  0.50534628     0.35600
C266        C  0.77840309  0.33306491  0.55316265     0.35600
C267        C  0.72803385  0.34796878  0.44275782    -0.21900
C268        C  0.74317527  0.32799590  0.44363461    -0.21900
C269        C  0.73319477  0.37227933  0.61860125    -0.21900
C270        C  0.74886920  0.35370793  0.61959990    -0.21900
C271        C  0.70488948  0.43598330  0.50891291    -0.22900
C272        C  0.70543739  0.43978515  0.53915338    -0.22900
C273        C  0.79501884  0.32015220  0.51367794    -0.22900
C274        C  0.79555285  0.32269222  0.54396992    -0.22900
C275        C  0.71669267  0.39383417  0.47405196    -0.18300
C276        C  0.77040241  0.32528844  0.47618088    -0.18300
C277        C  0.77300487  0.33818437  0.58302355    -0.18300
C278        C  0.71818103  0.40656330  0.58022721    -0.18300
H279        H  0.71817172  0.34901815  0.42501957     0.14600
H280        H  0.74732960  0.31081299  0.42662119     0.14600
H281        H  0.72417903  0.37720255  0.63711416     0.14600
H282        H  0.75413273  0.34171060  0.63909765     0.14600
H283        H  0.69743299  0.45126744  0.49361681     0.12900
H284        H  0.69847227  0.45854822  0.55182092     0.12900
H285        H  0.80625668  0.31279370  0.49956492     0.12900
H286        H  0.80732693  0.31755749  0.55752554     0.12900
H287        H  0.74850749  0.37335119  0.50162334     0.26200
H288        H  0.74952860  0.38020675  0.55232962     0.26200
C289        C  0.34102022  0.00194974  0.28223990     0.01400
C290        C  0.33707457  0.48268661  0.30662140     0.04200
C291        C  0.32660038  0.99537202  0.33074424    -0.11900
C292        C  0.31735345  0.02538700  0.32717850     0.23500
C293        C  0.31895839  0.04248491  0.30025279    -0.12400
C294        C  0.33080047  0.03105285  0.27794049     0.04900
C295        C  0.30563372  0.03901925  0.35123018     0.27300
C296        C  0.28818484  0.02573836  0.35688457    -0.13100
C297        C  0.27697563  0.03947129  0.37907413     0.05400
C298        C  0.28252735  0.06808345  0.39411179    -0.09100
C299        C  0.29973568  0.08197184  0.38772987     0.06200
C300        C  0.31150177  0.06680568  0.36717480    -0.13500
Br301      Br  0.30467572  0.08158620  0.29388909    -0.05500
Br302      Br  0.34207883  0.43643199  0.30597252     0.00100
Br303      Br  0.25418003  0.01871355  0.38938753     0.00500
Br304      Br  0.33578649  0.08388741  0.36093201    -0.03900
Br305      Br  0.33277000  0.05575818  0.24149856     0.00600
Br306      Br  0.32220381  0.47102348  0.36526581    -0.03200
Br307      Br  0.27940258  0.98938184  0.33359852    -0.04000
Br308      Br  0.30721851  0.12172753  0.40740071    -0.00100
C309        C  0.39678397  0.43191562  0.25728327     0.01400
C310        C  0.39944751  0.42335092  0.28753374     0.04200
C311        C  0.41199046  0.39851695  0.29517801    -0.11900
C312        C  0.42308609  0.38416882  0.27331888     0.23500
C313        C  0.42227988  0.39531190  0.24409872    -0.12400
C314        C  0.40906717  0.41828306  0.23578800     0.04900
C315        C  0.43564655  0.35682586  0.28004011     0.27300
C316        C  0.45346119  0.36349191  0.28991875    -0.13100
C317        C  0.46676940  0.33869393  0.28918395     0.05400
C318        C  0.46231789  0.30732327  0.27824544    -0.09100
C319        C  0.44416072  0.30007980  0.27056154     0.06200
C320        C  0.43087146  0.32484429  0.27117971    -0.13500
Br321      Br  0.43949591  0.37818273  0.21518360    -0.05500
Br322      Br  0.38685356  0.44490175  0.31950310     0.00100
Br323      Br  0.49122221  0.34805407  0.30230730     0.00500
Br324      Br  0.40636134  0.31568595  0.25796698    -0.03900
Br325      Br  0.40904963  0.43005395  0.19431104     0.00600
Br326      Br  0.41386824  0.38328033  0.33551096    -0.03200
Br327      Br  0.45984698  0.40717351  0.30251274    -0.04000
Br328      Br  0.43732566  0.25607524  0.26015766    -0.00100
C329        C  0.46124955  0.16554561  0.26590099     0.01400
C330        C  0.45833305  0.14075056  0.28744825     0.04200
C331        C  0.44543619  0.11565593  0.28241547    -0.11900
C332        C  0.43448699  0.11597999  0.25687914     0.23500
C333        C  0.43664492  0.14119780  0.23604471    -0.12400
C334        C  0.45022545  0.16524357  0.23987954     0.04900
C335        C  0.42077313  0.08961548  0.25154312     0.27300
C336        C  0.42403308  0.06559706  0.22985821    -0.13100
C337        C  0.41045522  0.04235439  0.22288508     0.05400
C338        C  0.39397379  0.04059717  0.23949131    -0.09100
C339        C  0.39142174  0.06394595  0.26262862     0.06200
C340        C  0.40429151  0.08911980  0.26748137    -0.13500
Br341      Br  0.42071315  0.14262306  0.20198107    -0.05500
Br342      Br  0.47216931  0.13940460  0.32369269     0.00100
Br343      Br  0.41536433  0.01307046  0.19071996     0.00500
Br344      Br  0.39938395  0.12356633  0.29591599    -0.03900
Br345      Br  0.45296174  0.19724228  0.20851504     0.00600
Br346      Br  0.44308658  0.07984521  0.31006635    -0.03200
Br347      Br  0.44754472  0.06425884  0.21024008    -0.04000
Br348      Br  0.37074896  0.06279460  0.28870703    -0.00100
C349        C  0.70564440  0.40741238  0.44941487     0.01400
C350        C  0.71336752  0.43089965  0.43030199     0.04200
C351        C  0.70305930  0.44370305  0.40682615    -0.11900
C352        C  0.68488000  0.43344692  0.40262774     0.23500
C353        C  0.67698960  0.41062773  0.42228719    -0.12400
C354        C  0.68742420  0.39737444  0.44546543     0.04900
C355        C  0.67462565  0.44495130  0.37627201     0.27300
C356        C  0.66522997  0.47499607  0.37678186    -0.13100
C357        C  0.65660015  0.48665853  0.35096218     0.05400
C358        C  0.65785507  0.46887786  0.32412187    -0.09100
C359        C  0.66665782  0.43800312  0.32428346     0.06200
C360        C  0.67491885  0.42613195  0.35019530    -0.13500
Br361      Br  0.65193947  0.39745827  0.41721957    -0.05500
Br362      Br  0.73808397  0.44557872  0.43650868     0.00100
Br363      Br  0.64327530  0.52700446  0.35285904     0.00500
Br364      Br  0.68694561  0.38402356  0.35008861    -0.03900
Br365      Br  0.67701024  0.36495372  0.47152773     0.00600
Br366      Br  0.71401207  0.97661355  0.37820555    -0.03200
Br367      Br  0.66457155  0.50026658  0.41292753    -0.04000
Br368      Br  0.66697326  0.41077218  0.28950551    -0.00100
C369        C  0.71649629  0.07336290  0.09853590     0.01400
C370        C  0.70721026  0.09138979  0.12068305     0.04200
C371        C  0.69712993  0.07501977  0.14278351    -0.11900
C372        C  0.69550218  0.04063584  0.14216920     0.23500
C373        C  0.70482880  0.02257164  0.12014479    -0.12400
C374        C  0.71581581  0.03881755  0.09908847     0.04900
C375        C  0.68414083  0.02371430  0.16498865     0.27300
C376        C  0.69244078  0.00782831  0.18894506    -0.13100
C377        C  0.68147420  0.49153114  0.21228999     0.05400
C378        C  0.66248463  0.99749812  0.21185317    -0.09100
C379        C  0.65420604  0.01016593  0.18573302     0.06200
C380        C  0.66501972  0.02310131  0.16256621    -0.13500
Br381      Br  0.70223108  0.97560916  0.11846402    -0.05500
Br382      Br  0.70798245  0.13863487  0.12057199     0.00100
Br383      Br  0.69237094  0.45498243  0.23265351     0.00500
Br384      Br  0.65372770  0.04100311  0.12759764    -0.03900
Br385      Br  0.73049479  0.01378781  0.07164804     0.00600
Br386      Br  0.68561226  0.09960655  0.17425190    -0.03200
Br387      Br  0.71873896  0.50597780  0.19458146    -0.04000
Br388      Br  0.62809127  0.00924458  0.18033746    -0.00100
C389        C  0.61260597  0.04361806  0.27467096     0.01400
C390        C  0.59581646  0.03831160  0.25988370     0.04200
C391        C  0.58196443  0.06211523  0.26096627    -0.11900
C392        C  0.58501914  0.09217212  0.27532701     0.23500
C393        C  0.60207359  0.09853772  0.28837815    -0.12400
C394        C  0.61595587  0.07466591  0.28742912     0.04900
C395        C  0.57058376  0.11772807  0.27490560     0.27300
C396        C  0.57043644  0.14146789  0.25236298    -0.13100
C397        C  0.55638496  0.16498421  0.25118598     0.05400
C398        C  0.54212322  0.16467973  0.27253839    -0.09100
C399        C  0.54224514  0.14017072  0.29485785     0.06200
C400        C  0.55648927  0.11708616  0.29606042    -0.13500
Br401      Br  0.60658150  0.14065223  0.30634545    -0.05500
Br402      Br  0.59222481  0.00085051  0.23447465     0.00100
Br403      Br  0.55754402  0.19808389  0.22071388     0.00500
Br404      Br  0.55670106  0.08386069  0.32646604    -0.03900
Br405      Br  0.64024299  0.08642307  0.29972165     0.00600
Br406      Br  0.55894505  0.05443334  0.24139145    -0.03200
Br407      Br  0.58959809  0.14136271  0.22287147    -0.04000
Br408      Br  0.52256547  0.13616208  0.32321287    -0.00100
C409        C  0.61147719  0.43199366  0.26831323     0.01400
C410        C  0.59546945  0.43505373  0.28685218     0.04200
C411        C  0.58270708  0.40915379  0.28895427    -0.11900
C412        C  0.58407734  0.38179611  0.27037286     0.23500
C413        C  0.59906756  0.37884142  0.25124182    -0.12400
C414        C  0.61338807  0.40194985  0.25210994     0.04900
C415        C  0.56968977  0.35596016  0.27127739     0.27300
C416        C  0.57197861  0.32793928  0.28904787    -0.13100
C417        C  0.55809054  0.30406574  0.29074928     0.05400
C418        C  0.54177228  0.30806583  0.27460740    -0.09100
C419        C  0.53963779  0.33607859  0.25648748     0.06200
C420        C  0.55349023  0.35996470  0.25505076    -0.13500
Br421      Br  0.59970654  0.34281888  0.22342079    -0.05500
Br422      Br  0.58845689  0.47398561  0.30859216     0.00100
Br423      Br  0.56209979  0.26485239  0.31358932     0.00500
Br424      Br  0.55038646  0.39841435  0.23078490    -0.03900
Br425      Br  0.63606372  0.38810318  0.23402639     0.00600
Br426      Br  0.56268731  0.41079157  0.31715511    -0.03200
Br427      Br  0.59430899  0.32235302  0.31091075    -0.04000
Br428      Br  0.51765083  0.34248129  0.23374346    -0.00100
C429        C  0.83965076  0.26811712  0.32813502     0.01400
C430        C  0.82451038  0.24822156  0.33610446     0.04200
C431        C  0.81311096  0.25675017  0.36016958    -0.11900
C432        C  0.81765567  0.28334703  0.37864694     0.23500
C433        C  0.83385863  0.30089309  0.37299076    -0.12400
C434        C  0.84435716  0.29436761  0.34734211     0.04900
C435        C  0.80532173  0.29347322  0.40358273     0.27300
C436        C  0.79626619  0.32394797  0.40259520    -0.13100
C437        C  0.78628479  0.33514022  0.42730804     0.05400
C438        C  0.78251661  0.31383364  0.45123988    -0.09100
C439        C  0.79038298  0.28219671  0.45107405     0.06200
C440        C  0.80295985  0.27334027  0.42869271    -0.13500
Br441      Br  0.84166617  0.33412858  0.40077394    -0.05500
Br442      Br  0.81979700  0.20760955  0.31588088     0.00100
Br443      Br  0.77895688  0.38055834  0.42898224     0.00500
Br444      Br  0.81779016  0.23470564  0.43338863    -0.03900
Br445      Br  0.86425323  0.32359129  0.33869792     0.00600
Br446      Br  0.79087334  0.23241255  0.36718730    -0.03200
Br447      Br  0.79729838  0.35043804  0.36725577    -0.04000
Br448      Br  0.78350637  0.25033755  0.48056072    -0.00100
C449        C  0.78664260  0.18837772  0.09671588     0.01400
C450        C  0.80570326  0.18348734  0.09612778     0.04200
C451        C  0.81681953  0.19858989  0.11752642    -0.11900
C452        C  0.80892419  0.21845143  0.13968449     0.23500
C453        C  0.78993702  0.22401173  0.13977448    -0.12400
C454        C  0.77882067  0.20894315  0.11839263     0.04900
C455        C  0.81993041  0.22875218  0.16565714     0.27300
C456        C  0.82182039  0.20687337  0.18923268    -0.13100
C457        C  0.83148222  0.21606338  0.21475843     0.05400
C458        C  0.83960200  0.24798290  0.21733272    -0.09100
C459        C  0.83556271  0.27098302  0.19451544     0.06200
C460        C  0.82687737  0.26067710  0.16816546    -0.13500
Br461      Br  0.77909812  0.25111722  0.17013539    -0.05500
Br462      Br  0.81645579  0.15495287  0.06675670     0.00100
Br463      Br  0.83221690  0.18368996  0.24600597     0.00500
Br464      Br  0.82389258  0.29047110  0.13539608    -0.03900
Br465      Br  0.75279009  0.21590897  0.11906371     0.00600
Br466      Br  0.84278873  0.19101197  0.11748252    -0.03200
Br467      Br  0.81060370  0.16392071  0.18636956    -0.04000
Br468      Br  0.83711520  0.31756249  0.20063450    -0.00100
C469        C  0.20762924  0.17630119  0.40248265     0.01400
C470        C  0.21458124  0.20122471  0.38399978     0.04200
C471        C  0.20311108  0.21690835  0.36341056    -0.11900
C472        C  0.18481205  0.20679167  0.36005139     0.23500
C473        C  0.17769364  0.18258099  0.37912276    -0.12400
C474        C  0.18895259  0.16785018  0.40060628     0.04900
C475        C  0.17402634  0.21845853  0.33403403     0.27300
C476        C  0.16052041  0.24288738  0.33687870    -0.13100
C477        C  0.15113344  0.25443024  0.31159706     0.05400
C478        C  0.15530598  0.24183778  0.28311101    -0.09100
C479        C  0.16815152  0.21588417  0.28082361     0.06200
C480        C  0.17746633  0.20457889  0.30601964    -0.13500
Br481      Br  0.15267601  0.16868051  0.37497429    -0.05500
Br482      Br  0.23993411  0.21352381  0.38657693     0.00100
Br483      Br  0.13258793  0.28732019  0.31650377     0.00500
Br484      Br  0.19476299  0.16903988  0.30242782    -0.03900
Br485      Br  0.17886652  0.13534402  0.42696971     0.00600
Br486      Br  0.21244723  0.25215178  0.33935826    -0.03200
Br487      Br  0.15491648  0.26039113  0.37555863    -0.04000
Br488      Br  0.17174589  0.19262039  0.24392338    -0.00100
C489        C  0.03715308  0.43329344  0.25410455     0.01400
C490        C  0.03925056  0.41100907  0.27801441     0.04200
C491        C  0.05266823  0.38632268  0.27683686    -0.11900
C492        C  0.06387778  0.38294486  0.25168875     0.23500
C493        C  0.06162368  0.40437514  0.22756873    -0.12400
C494        C  0.04839148  0.42946705  0.22867960     0.04900
C495        C  0.07802948  0.35673322  0.25046907     0.27300
C496        C  0.09634201  0.36409658  0.25692462    -0.13100
C497        C  0.10995294  0.33998802  0.25348021     0.05400
C498        C  0.10544975  0.30823298  0.24323047    -0.09100
C499        C  0.08684029  0.30045147  0.23880987     0.06200
C500        C  0.07322633  0.32455276  0.24245763    -0.13500
Br501      Br  0.07694596  0.39928540  0.19297054    -0.05500
Br502      Br  0.02325168  0.41235975  0.31218257     0.00100
Br503      Br  0.13468154  0.35070033  0.26370477     0.00500
Br504      Br  0.04788311  0.31384266  0.23585090    -0.03900
Br505      Br  0.04652465  0.45897569  0.19545739     0.00600
Br506      Br  0.05588324  0.35687486  0.30983055    -0.03200
Br507      Br  0.10269417  0.40755443  0.27026458    -0.04000
Br508      Br  0.07956985  0.25743719  0.22672231    -0.00100
C509        C  0.11062017  0.19749625  0.22621572     0.01400
C510        C  0.10840221  0.18022903  0.25332457     0.04200
C511        C  0.09370704  0.15849133  0.25759120    -0.11900
C512        C  0.08219787  0.15030102  0.23397512     0.23500
C513        C  0.08507970  0.16489327  0.20614302    -0.12400
C514        C  0.09880629  0.18896778  0.20229433     0.04900
C515        C  0.06716357  0.12610078  0.23864877     0.27300
C516        C  0.07108083  0.09227573  0.23990627    -0.13100
C517        C  0.05703297  0.06951481  0.24558969     0.05400
C518        C  0.03900520  0.08038306  0.25011917    -0.09100
C519        C  0.03503567  0.11409390  0.24877078     0.06200
C520        C  0.04907202  0.13691745  0.24315630    -0.13500
Br521      Br  0.06948244  0.15256747  0.17357763    -0.05500
Br522      Br  0.12612237  0.18265130  0.28444662     0.00100
Br523      Br  0.06237670  0.02329325  0.24696455     0.00500
Br524      Br  0.04357854  0.18307753  0.24193593    -0.03900
Br525      Br  0.09937266  0.21175639  0.16479819     0.00600
Br526      Br  0.08876582  0.14060841  0.29644430    -0.03200
Br527      Br  0.09574338  0.07715345  0.23385114    -0.04000
Br528      Br  0.01028925  0.12888182  0.25441854    -0.00100
C529        C  0.95906502  0.08571640  0.27393537     0.01400
C530        C  0.96068559  0.10977929  0.29652152     0.04200
C531        C  0.94714957  0.13403335  0.30001368    -0.11900
C532        C  0.93179166  0.13421110  0.28147427     0.23500
C533        C  0.92978000  0.10982134  0.25966896    -0.12400
C534        C  0.94331899  0.08575042  0.25577070     0.04900
C535        C  0.91833146  0.16133848  0.28311580     0.27300
C536        C  0.90386229  0.16064427  0.30381195    -0.13100
C537        C  0.89010324  0.18472564  0.30288195     0.05400
C538        C  0.89049825  0.20887522  0.28072199    -0.09100
C539        C  0.90527318  0.20990875  0.26039592     0.06200
C540        C  0.91935425  0.18674697  0.26219642    -0.13500
Br541      Br  0.90831874  0.10977708  0.23491218    -0.03100
Br542      Br  0.98169992  0.11113861  0.32215300     0.00100
Br543      Br  0.87007677  0.18348018  0.33062753     0.00500
Br544      Br  0.93996627  0.18917784  0.23546585    -0.03900
Br545      Br  0.93945107  0.05218796  0.22618043     0.00600
Br546      Br  0.94977874  0.16791054  0.32958919    -0.03200
Br547      Br  0.90249466  0.12581312  0.33243895    -0.04000
Br548      Br  0.90646829  0.24300831  0.22985348    -0.00100
C549        C  0.88794141  0.31739652  0.27629151     0.01400
C550        C  0.90561371  0.31237168  0.28869237     0.04200
C551        C  0.91847221  0.33810853  0.28931977    -0.11900
C552        C  0.91408402  0.36904456  0.27788424     0.23500
C553        C  0.89629501  0.37507150  0.26782441    -0.12400
C554        C  0.88314429  0.34981364  0.26799665     0.04900
C555        C  0.92856499  0.39461650  0.27572328     0.27300
C556        C  0.93066383  0.41841714  0.29810642    -0.13100
C557        C  0.94536570  0.44082441  0.29696675     0.05400
C558        C  0.95839328  0.43893113  0.27374469    -0.09100
C559        C  0.95635430  0.41442092  0.25174195     0.06200
C560        C  0.94120002  0.39325273  0.25222444    -0.13500
Br561      Br  0.89009351  0.41808594  0.25347008    -0.05500
Br562      Br  0.91334411  0.27157111  0.30576642     0.00100
Br563      Br  0.94695404  0.47475561  0.32663967     0.00500
Br564      Br  0.93748011  0.36238464  0.22034576    -0.03900
Br565      Br  0.85804902  0.36127179  0.26052783     0.00600
Br566      Br  0.94256943  0.33128583  0.30563997    -0.03200
Br567      Br  0.91315119  0.42033416  0.33008955    -0.04000
Br568      Br  0.97494644  0.40776876  0.22183725    -0.00100
C569        C  0.21433276  0.32979633  0.05398267     0.01400
C570        C  0.22094716  0.30913232  0.07654626     0.04200
C571        C  0.20937699  0.29911635  0.09981477    -0.11900
C572        C  0.19068306  0.30735320  0.09960441     0.23500
C573        C  0.18378564  0.32647678  0.07620749    -0.12400
C574        C  0.19565269  0.33860286  0.05404574     0.04900
C575        C  0.17865472  0.29699447  0.12480443     0.27300
C576        C  0.17293708  0.26426176  0.12741066    -0.13100
C577        C  0.16430593  0.25309725  0.15359379     0.05400
C578        C  0.15826406  0.27576962  0.17569066    -0.09100
C579        C  0.16539453  0.30832816  0.17356389     0.06200
C580        C  0.17531119  0.31869300  0.14834952    -0.13500
Br581      Br  0.15803364  0.33583483  0.07458093    -0.05500
Br582      Br  0.24579702  0.29353500  0.07514436     0.00100
Br583      Br  0.16705520  0.20699046  0.16183139     0.00500
Br584      Br  0.18529515  0.36254195  0.14639264    -0.03900
Br585      Br  0.18637653  0.36824695  0.02447580     0.00600
Br586      Br  0.21930203  0.27483552  0.13261694    -0.03200
Br587      Br  0.17793328  0.23418955  0.09531318    -0.04000
Br588      Br  0.16427534  0.33853614  0.20632386    -0.00100
C589        C  0.29874491  0.40901756  0.05488387     0.01400
C590        C  0.31129432  0.38749165  0.06816524     0.04200
C591        C  0.32306118  0.39890186  0.09050519    -0.11900
C592        C  0.32186540  0.43161492  0.10051092     0.23500
C593        C  0.30962113  0.45333214  0.08672880    -0.12400
C594        C  0.29815928  0.44209554  0.06388314     0.04900
C595        C  0.33235171  0.44223452  0.12709129     0.27300
C596        C  0.32674011  0.43167715  0.15522806    -0.13100
C597        C  0.33707482  0.43953106  0.18043171     0.05400
C598        C  0.35205633  0.46198597  0.17859782    -0.09100
C599        C  0.35860921  0.46972425  0.14958134     0.06200
C600        C  0.34853428  0.46045231  0.12421776    -0.13500
Br601      Br  0.30212026  0.99183410  0.10379837    -0.05500
Br602      Br  0.31196189  0.34213099  0.05623751     0.00100
Br603      Br  0.33145070  0.41531751  0.21628886     0.00500
Br604      Br  0.35719773  0.47134218  0.08494054    -0.03900
Br605      Br  0.28122777  0.47172600  0.04537330     0.00600
Br606      Br  0.34078855  0.36971331  0.10767573    -0.03200
Br607      Br  0.30463020  0.40606997  0.15914825    -0.04000
Br608      Br  0.38290030  0.48588580  0.14235059    -0.00100
C609        C  0.34740066  0.47951179  0.77525697     0.01400
C610        C  0.35588524  0.45506962  0.79315603     0.04200
C611        C  0.34704700  0.44312158  0.81893527    -0.11900
C612        C  0.32932217  0.45357506  0.82636116     0.23500
C613        C  0.32121908  0.47857524  0.80966058    -0.12400
C614        C  0.33079446  0.49306210  0.78599292     0.04900
C615        C  0.31943215  0.43921246  0.85232795     0.27300
C616        C  0.31241642  0.40706887  0.85092925    -0.13100
C617        C  0.30305583  0.39365399  0.87539616     0.05400
C618        C  0.29886474  0.41336087  0.90032263    -0.09100
C619        C  0.30569130  0.44577626  0.90147963     0.06200
C620        C  0.31670421  0.45792922  0.87827705    -0.13500
Br621      Br  0.29666158  0.49270536  0.81882500    -0.05500
Br622      Br  0.37950629  0.43688182  0.78452180     0.00100
Br623      Br  0.29627768  0.34794121  0.87486978     0.00500
Br624      Br  0.32840317  0.00084626  0.88914263    -0.03900
Br625      Br  0.32233621  0.53482971  0.77235684     0.00600
Br626      Br  0.35916480  0.41226171  0.84467544    -0.03200
Br627      Br  0.31498160  0.38179103  0.81498483    -0.04000
Br628      Br  0.29915624  0.47456108  0.93378518    -0.00100
C629        C  0.28224586  0.05698941  0.54854239     0.01400
C630        C  0.29618123  0.07613486  0.56122894     0.04200
C631        C  0.30727398  0.06301722  0.58357720    -0.11900
C632        C  0.30433830  0.03075668  0.59370353     0.23500
C633        C  0.29082003  0.01120560  0.58032928    -0.12400
C634        C  0.27991389  0.02419888  0.55754017     0.04900
C635        C  0.31497782  0.01845203  0.61941250     0.27300
C636        C  0.33146365  0.00175425  0.61491167    -0.13100
C637        C  0.34335970  0.99577211  0.63887461     0.05400
C638        C  0.33803485  0.00380931  0.66870956    -0.09100
C639        C  0.32191133  0.02311871  0.67199957     0.06200
C640        C  0.31007141  0.02847963  0.64802301    -0.13500
Br641      Br  0.28196164  0.48029842  0.60119517    -0.05500
Br642      Br  0.29999519  0.12049087  0.54786790     0.00100
Br643      Br  0.36809588  0.98417855  0.62772876     0.00500
Br644      Br  0.28730866  0.05172037  0.65375788    -0.03900
Br645      Br  0.26176093  0.99732014  0.53861263     0.00600
Br646      Br  0.32640176  0.08941705  0.60068891    -0.03200
Br647      Br  0.33810826  0.98901121  0.57500649    -0.04000
Br648      Br  0.31756864  0.04985796  0.70637500    -0.00100
C649        C  0.45484336  0.31351778  0.74008683     0.01400
C650        C  0.44451943  0.31060766  0.71364603     0.04200
C651        C  0.43100672  0.33393453  0.70683343    -0.11900
C652        C  0.42669799  0.35886596  0.72723231     0.23500
C653        C  0.43596060  0.36040330  0.75448413    -0.12400
C654        C  0.45040097  0.33871245  0.76046712     0.04900
C655        C  0.41366832  0.38538003  0.71935576     0.27300
C656        C  0.42054175  0.41663197  0.71239249    -0.13100
C657        C  0.40864875  0.44346864  0.71006070     0.05400
C658        C  0.38960551  0.43883402  0.71204841    -0.09100
C659        C  0.38261935  0.40690523  0.71657777     0.06200
C660        C  0.39465068  0.38042716  0.72103734    -0.13500
Br661      Br  0.42903003  0.39307445  0.78342804    -0.05500
Br662      Br  0.44796410  0.27402279  0.68695851     0.00100
Br663      Br  0.41881558  0.48647058  0.70498433     0.00500
Br664      Br  0.38514777  0.33770211  0.73072099    -0.03900
Br665      Br  0.46486122  0.34596841  0.79555769     0.00600
Br666      Br  0.41881721  0.33260240  0.66902217    -0.03200
Br667      Br  0.44644206  0.42249786  0.70615178    -0.04000
Br668      Br  0.35661444  0.39984201  0.71979169    -0.00100
C669        C  0.38873022  0.05473198  0.72644789     0.01400
C670        C  0.39246969  0.06694025  0.75516814     0.04200
C671        C  0.40599531  0.09108189  0.75917176    -0.11900
C672        C  0.41437694  0.10579370  0.73441363     0.23500
C673        C  0.40952957  0.09575449  0.70572955    -0.12400
C674        C  0.39784177  0.06890137  0.70176451     0.04900
C675        C  0.42911701  0.13036322  0.73828254     0.27300
C676        C  0.42503402  0.16235504  0.74799546    -0.13100
C677        C  0.43920437  0.18508745  0.75235136     0.05400
C678        C  0.45731140  0.17679519  0.74457937    -0.09100
C679        C  0.46119143  0.14547177  0.73307061     0.06200
C680        C  0.44728775  0.12184390  0.73126663    -0.13500
Br681      Br  0.41908345  0.11888385  0.67170572    -0.05500
Br682      Br  0.37853600  0.05276791  0.78912256     0.00100
Br683      Br  0.43360701  0.22803379  0.76791199     0.00500
Br684      Br  0.45318197  0.07754169  0.71956229    -0.03900
Br685      Br  0.39627927  0.05016401  0.66246529     0.00600
Br686      Br  0.41345142  0.10344629  0.79861283    -0.03200
Br687      Br  0.39998421  0.17537503  0.75417667    -0.04000
Br688      Br  0.48547845  0.13472165  0.71970357    -0.00100
C689        C  0.66106975  0.01208666  0.82234767     0.01400
C690        C  0.67232722  0.04047108  0.81878226     0.04200
C691        C  0.68283874  0.05266269  0.84253355    -0.11900
C692        C  0.68252348  0.03694777  0.87018673     0.23500
C693        C  0.67312964  0.00708999  0.87302899    -0.12400
C694        C  0.66383870  0.49344213  0.85221104     0.04900
C695        C  0.69254926  0.05138968  0.89591801     0.27300
C696        C  0.70942979  0.03825459  0.90505935    -0.13100
C697        C  0.71868529  0.05189659  0.92948208     0.05400
C698        C  0.71198009  0.08047592  0.94336217    -0.09100
C699        C  0.69522998  0.09385233  0.93400135     0.06200
C700        C  0.68528335  0.07873953  0.91104715    -0.13500
Br701      Br  0.67367763  0.48562041  0.91411939    -0.05500
Br702      Br  0.67426729  0.06307583  0.78129568     0.00100
Br703      Br  0.74056602  0.03144805  0.94414856     0.00500
Br704      Br  0.66158505  0.09533602  0.90032187    -0.03900
Br705      Br  0.66009645  0.44687830  0.85397503     0.00600
Br706      Br  0.69765803  0.09146018  0.83751497    -0.03200
Br707      Br  0.72023645  0.00235732  0.88342715    -0.04000
Br708      Br  0.68604281  0.13320179  0.95242106    -0.00100
C709        C  0.64735807  0.47749900  0.72038372     0.01400
C710        C  0.65419693  0.50105160  0.70024739     0.04200
C711        C  0.66353177  0.49110773  0.67425235    -0.11900
C712        C  0.66788885  0.45780760  0.66971581     0.23500
C713        C  0.66090939  0.43429479  0.68958399    -0.12400
C714        C  0.64997310  0.44404580  0.71379455     0.04900
C715        C  0.68053459  0.44741786  0.64523957     0.27300
C716        C  0.67395042  0.42884810  0.62117147    -0.13100
C717        C  0.68623119  0.41442048  0.60084595     0.05400
C718        C  0.70514005  0.42139932  0.60236712    -0.09100
C719        C  0.71149741  0.44250327  0.62493023     0.06200
C720        C  0.69943001  0.45401167  0.64707850    -0.13500
Br721      Br  0.66747745  0.38873540  0.68500857    -0.05500
Br722      Br  0.65592767  0.04905517  0.70730021     0.00100
Br723      Br  0.67707623  0.38351260  0.57207258     0.00500
Br724      Br  0.70898101  0.47751021  0.68074479    -0.03900
Br725      Br  0.63896909  0.41118804  0.73817476     0.00600
Br726      Br  0.67599219  0.02463174  0.64457539    -0.03200
Br727      Br  0.64800515  0.42324848  0.61609993    -0.04000
Br728      Br  0.73667971  0.45632179  0.62520021    -0.00100
C729        C  0.60655955  0.05624257  0.76956287     0.01400
C730        C  0.59899845  0.06891383  0.79641759     0.04200
C731        C  0.58665786  0.09522589  0.79592309    -0.11900
C732        C  0.58004706  0.10705945  0.76887722     0.23500
C733        C  0.58627255  0.09305359  0.74213735    -0.12400
C734        C  0.59966853  0.06812091  0.74235668     0.04900
C735        C  0.56541656  0.13236999  0.76893742     0.27300
C736        C  0.54723746  0.12318816  0.77513448    -0.13100
C737        C  0.53340689  0.14706610  0.77640464     0.05400
C738        C  0.53743890  0.17988189  0.76939975    -0.09100
C739        C  0.55566372  0.18924836  0.76392160     0.06200
C740        C  0.56967927  0.16564338  0.76426943    -0.13500
Br741      Br  0.57603464  0.10791285  0.70524150    -0.05500
Br742      Br  0.60310259  0.04785442  0.83423878     0.00100
Br743      Br  0.50902445  0.13481348  0.78803351     0.00500
Br744      Br  0.59472014  0.17880705  0.75868870    -0.03900
Br745      Br  0.60788906  0.05025872  0.70518192     0.00600
Br746      Br  0.57848072  0.11509321  0.83255451    -0.03200
Br747      Br  0.54126875  0.07764475  0.78119301    -0.04000
Br748      Br  0.56142887  0.23473603  0.75706533    -0.00100
C749        C  0.53513581  0.32165013  0.76840024     0.01400
C750        C  0.54708166  0.33159895  0.74493250     0.04200
C751        C  0.56046268  0.35589929  0.74976243    -0.11900
C752        C  0.56243094  0.37045459  0.77773174     0.23500
C753        C  0.55085993  0.36108183  0.80106517    -0.12400
C754        C  0.53721901  0.33715465  0.79664179     0.04900
C755        C  0.57643375  0.39644458  0.78240559     0.27300
C756        C  0.59405007  0.38828843  0.79204127    -0.13100
C757        C  0.60730578  0.41295821  0.79647725     0.05400
C758        C  0.60331314  0.44628057  0.78989196    -0.09100
C759        C  0.58509080  0.45411852  0.78190197     0.06200
C760        C  0.57194959  0.42936881  0.77758870    -0.13500
Br761      Br  0.55385603  0.38169381  0.83934824    -0.05500
Br762      Br  0.54613540  0.31277651  0.70556754     0.00100
Br763      Br  0.63067617  0.39961678  0.81157218     0.00500
Br764      Br  0.54766087  0.44024191  0.76420722    -0.03900
Br765      Br  0.52160283  0.32749937  0.83024662     0.00600
Br766      Br  0.57641031  0.36983645  0.71794703    -0.03200
Br767      Br  0.60009864  0.34270686  0.79773192    -0.04000
Br768      Br  0.57675956  0.49847598  0.78006167    -0.00100
C769        C  0.84561124  0.23854720  0.82899345     0.01400
C770        C  0.83284364  0.21202063  0.82665721     0.04200
C771        C  0.82101708  0.20443584  0.85027784    -0.11900
C772        C  0.82144971  0.22294942  0.87641321     0.23500
C773        C  0.83466853  0.24746842  0.87996153    -0.12400
C774        C  0.84755853  0.25355711  0.85736377     0.04900
C775        C  0.80929791  0.21383289  0.90139209     0.27300
C776        C  0.79135584  0.22609807  0.90291235    -0.13100
C777        C  0.77944097  0.21529178  0.92536822     0.05400
C778        C  0.78525337  0.19133340  0.94561682    -0.09100
C779        C  0.80335419  0.17967298  0.94451083     0.06200
C780        C  0.81539903  0.19113379  0.92259563    -0.13500
Br781      Br  0.83552189  0.27158745  0.91681474    -0.05500
Br782      Br  0.83181496  0.18341077  0.79227358     0.00100
Br783      Br  0.75523652  0.23335003  0.92873361     0.00500
Br784      Br  0.84012664  0.17495501  0.92088652    -0.03900
Br785      Br  0.86980408  0.27440521  0.86988617     0.00600
Br786      Br  0.80432693  0.16778848  0.84749230    -0.03200
Br787      Br  0.78303389  0.25683841  0.87360858    -0.04000
Br788      Br  0.81149773  0.14723493  0.97252549    -0.00100
C789        C  0.84333570  0.26888397  0.72253013     0.01400
C790        C  0.83367665  0.29895909  0.72448348     0.04200
C791        C  0.82262995  0.30939771  0.70093624    -0.11900
C792        C  0.82138621  0.29043992  0.67491797     0.23500
C793        C  0.83075081  0.26031311  0.67310951    -0.12400
C794        C  0.84073899  0.24875006  0.69755032     0.04900
C795        C  0.80939395  0.30157496  0.65035175     0.27300
C796        C  0.79250271  0.28597389  0.64521795    -0.13100
C797        C  0.78108005  0.29692236  0.62229899     0.05400
C798        C  0.78537349  0.32590180  0.60678268    -0.09100
C799        C  0.80185864  0.34242138  0.61297006     0.06200
C800        C  0.81431554  0.32910438  0.63328483    -0.13500
Br801      Br  0.82988901  0.23483037  0.63713538    -0.05500
Br802      Br  0.83538987  0.32642336  0.75939009     0.00100
Br803      Br  0.75972956  0.27184276  0.61179405     0.00500
Br804      Br  0.83827835  0.34815454  0.63742163    -0.03900
Br805      Br  0.84784014  0.20346369  0.69888190     0.00600
Br806      Br  0.80879721  0.34951462  0.70462174    -0.03200
Br807      Br  0.78462527  0.25044228  0.67032659    -0.04000
Br808      Br  0.80730554  0.38349061  0.59380549    -0.00100
C809        C  0.21573106  0.33183854  0.89995064     0.01400
C810        C  0.22105582  0.30587798  0.88122300     0.04200
C811        C  0.20922150  0.29480783  0.85888444    -0.11900
C812        C  0.19199125  0.30955721  0.85531828     0.23500
C813        C  0.18659036  0.33528293  0.87423286    -0.12400
C814        C  0.19846389  0.34647925  0.89646549     0.04900
C815        C  0.17992384  0.29895824  0.83078785     0.27300
C816        C  0.18159771  0.31386442  0.80290315    -0.13100
C817        C  0.17083406  0.30305024  0.77912533     0.05400
C818        C  0.15854056  0.27646769  0.78288270    -0.09100
C819        C  0.15626063  0.26274291  0.81137617     0.06200
C820        C  0.16692898  0.27403927  0.83523024    -0.13500
Br821      Br  0.16296516  0.35525965  0.86933763    -0.05500
Br822      Br  0.24451459  0.28536761  0.88647884     0.00100
Br823      Br  0.17224773  0.32662780  0.74204477     0.00500
Br824      Br  0.16401088  0.25530264  0.87415355    -0.03900
Br825      Br  0.19127911  0.38226397  0.92187498     0.00600
Br826      Br  0.21658571  0.25960412  0.83292190    -0.03200
Br827      Br  0.19880408  0.34922311  0.79745533    -0.04000
Br828      Br  0.13906743  0.22792062  0.81813672    -0.00100
C829        C  0.20944775  0.16544495  0.55618181     0.01400
C830        C  0.19090566  0.15745172  0.56052491     0.04200
C831        C  0.18083082  0.17248639  0.58348684    -0.11900
C832        C  0.18934610  0.19498254  0.60275434     0.23500
C833        C  0.20801015  0.20242411  0.59875800    -0.12400
C834        C  0.21791645  0.18819556  0.57521352     0.04900
C835        C  0.17906676  0.20892955  0.62849367     0.27300
C836        C  0.17230793  0.24116704  0.62792460    -0.13100
C837        C  0.16334279  0.25466707  0.65300692     0.05400
C838        C  0.15940533  0.23473447  0.67820958    -0.09100
C839        C  0.16858955  0.20389875  0.67957482     0.06200
C840        C  0.17760893  0.19074640  0.65466265    -0.13500
Br841      Br  0.22015935  0.23126839  0.62622315    -0.05500
Br842      Br  0.17949476  0.12526818  0.53535200     0.00100
Br843      Br  0.16174902  0.30184419  0.65446708     0.00500
Br844      Br  0.18864407  0.14773997  0.65647146    -0.03900
Br845      Br  0.24309676  0.20004219  0.56870505     0.00600
Br846      Br  0.15540179  0.16191620  0.58899874    -0.03200
Br847      Br  0.17609202  0.26718273  0.59275962    -0.04000
Br848      Br  0.17173460  0.18079969  0.71632974    -0.00100
C849        C  0.10922653  0.30912248  0.72696879     0.01400
C850        C  0.09513634  0.30981829  0.70537124     0.04200
C851        C  0.08088336  0.33301646  0.70744022    -0.11900
C852        C  0.08026669  0.35546499  0.73110116     0.23500
C853        C  0.09393150  0.35471367  0.75279247    -0.12400
C854        C  0.10841294  0.33210130  0.75064435     0.04900
C855        C  0.06579548  0.38109484  0.73253077     0.27300
C856        C  0.06788551  0.41015394  0.71611267    -0.13100
C857        C  0.05471247  0.43513951  0.71815157     0.05400
C858        C  0.03934593  0.43136650  0.73687514    -0.09100
C859        C  0.03744048  0.40250794  0.75379960     0.06200
C860        C  0.05049664  0.37727435  0.75128274    -0.13500
Br861      Br  0.09270497  0.38525184  0.78556222    -0.05500
Br862      Br  0.09374433  0.27704948  0.67449864     0.00100
Br863      Br  0.05846861  0.47540109  0.69654882     0.00500
Br864      Br  0.04739858  0.33721198  0.77326773    -0.03900
Br865      Br  0.12729848  0.33479655  0.77996071     0.00600
Br866      Br  0.06171590  0.33376701  0.67825203    -0.03200
Br867      Br  0.08909303  0.41583849  0.69114122    -0.04000
Br868      Br  0.01673486  0.39696177  0.77990235    -0.00100
C869        C  0.04430927  0.07306330  0.74906261     0.01400
C870        C  0.04897996  0.08791357  0.77678475     0.04200
C871        C  0.06272633  0.11195509  0.77821260    -0.11900
C872        C  0.07205941  0.12155911  0.75254201     0.23500
C873        C  0.06820737  0.10639901  0.72534691    -0.12400
C874        C  0.05425670  0.08270194  0.72330567     0.04900
C875        C  0.08532765  0.14895842  0.75393516     0.27300
C876        C  0.07920938  0.18136682  0.75071817    -0.13100
C877        C  0.09178157  0.20744476  0.75104603     0.05400
C878        C  0.11072879  0.20103218  0.75223718    -0.09100
C879        C  0.11646521  0.16880208  0.75891254     0.06200
C880        C  0.10382937  0.14286481  0.75963439    -0.13500
Br881      Br  0.08247145  0.11822199  0.69088424    -0.05500
Br882      Br  0.03671507  0.07761313  0.81374046     0.00100
Br883      Br  0.08243969  0.25123645  0.75186574     0.00500
Br884      Br  0.11177817  0.09877810  0.76783421    -0.03900
Br885      Br  0.04949183  0.06431447  0.68458901     0.00600
Br886      Br  0.06902522  0.13236973  0.81553577    -0.03200
Br887      Br  0.05352357  0.18971404  0.74493545    -0.04000
Br888      Br  0.14137158  0.16019560  0.76928243    -0.00100
C889        C  0.96535607  0.07921264  0.75175946     0.01400
C890        C  0.97099230  0.11046465  0.76142074     0.04200
C891        C  0.95856713  0.13677772  0.76158084    -0.11900
C892        C  0.94012288  0.13142754  0.75409232     0.23500
C893        C  0.93446696  0.10004524  0.74476815    -0.12400
C894        C  0.94723242  0.07444518  0.74231978     0.04900
C895        C  0.92647485  0.15824063  0.75731809     0.27300
C896        C  0.92079969  0.16804930  0.78564423    -0.13100
C897        C  0.90766502  0.19284882  0.78902018     0.05400
C898        C  0.89795325  0.20523955  0.76394779    -0.09100
C899        C  0.90439706  0.19595950  0.73532182     0.06200
C900        C  0.91894574  0.17343192  0.73227103    -0.13500
Br901      Br  0.90906474  0.09179406  0.73638906    -0.05500
Br902      Br  0.99591537  0.11752748  0.77337878     0.00100
Br903      Br  0.90496015  0.21072953  0.82856966     0.00500
Br904      Br  0.92866930  0.16266600  0.69359283    -0.03900
Br905      Br  0.93984332  0.03288611  0.72587966     0.00600
Br906      Br  0.96680570  0.18028821  0.77167855    -0.03200
Br907      Br  0.93068902  0.14640883  0.82016483    -0.04000
Br908      Br  0.89379975  0.21218635  0.69939489    -0.00100
C909        C  0.95915695  0.43647151  0.74187980     0.01400
C910        C  0.94292968  0.44414721  0.75731115     0.04200
C911        C  0.92974473  0.41976859  0.76253566    -0.11900
C912        C  0.93259610  0.38767920  0.75207261     0.23500
C913        C  0.94839400  0.38030662  0.73541654    -0.12400
C914        C  0.96174889  0.40458552  0.73055071     0.04900
C915        C  0.91873625  0.36191532  0.75810367     0.27300
C916        C  0.91956487  0.34324396  0.78411616    -0.13100
C917        C  0.90617529  0.31925209  0.79008383     0.05400
C918        C  0.89200084  0.31271875  0.76946579    -0.09100
C919        C  0.89177296  0.33139368  0.74278361     0.06200
C920        C  0.90467102  0.35641961  0.73781490    -0.13500
Br921      Br  0.95167798  0.33683744  0.71947555    -0.05500
Br922      Br  0.93853001  0.48835284  0.77070762     0.00100
Br923      Br  0.90861106  0.29449987  0.82593871     0.00500
Br924      Br  0.90322820  0.38391537  0.70303115    -0.03900
Br925      Br  0.98401444  0.39363480  0.70985945     0.00600
Br926      Br  0.90767944  0.43014940  0.78402608    -0.03200
Br927      Br  0.93945928  0.35053175  0.81131098    -0.04000
Br928      Br  0.87450601  0.32408960  0.71164775    -0.00100
O929        O  0.02164881  0.96551962  0.76723179    -0.72900
O930        O  0.98213749  0.54086704  0.76366740    -0.73900
O931        O  0.98319478  0.96982691  0.77107945    -0.62500
O932        O  0.02051852  0.53834624  0.76295011    -0.70900
O933        O  0.02117596  0.53716156  0.71399595    -0.70500
O934        O  0.98159036  0.97152662  0.72210376    -0.61700
O935        O  0.98230230  0.54134578  0.71454342    -0.74200
O936        O  0.02043975  0.96943022  0.71835052    -0.73000
Cu937      Cu  0.00079421  0.50485778  0.76507135     1.04600
Cu938      Cu  0.00185508  0.00548661  0.72023013     1.04300
C939        C  0.02685052  0.95595809  0.74156247     0.93300
C940        C  0.97655139  0.55281639  0.73919688     0.92400
C941        C  0.97599945  0.96014760  0.74695354     0.84600
C942        C  0.02738566  0.54813057  0.73853788     0.90800
C943        C  0.14738086  0.74513534  0.70204264     0.86500
C944        C  0.13530553  0.71635440  0.71209012    -0.53700
C945        C  0.12546132  0.72135509  0.73758649     0.09400
C946        C  0.12870690  0.75592748  0.75092599     0.20400
C947        C  0.13331358  0.77345030  0.70000805    -0.54400
C948        C  0.12368204  0.77954078  0.72561218     0.09500
C949        C  0.15903427  0.75387225  0.72879273    -0.54000
C950        C  0.14961655  0.75991967  0.75419046     0.10100
H951        H  0.13404904  0.69408422  0.69905425     0.14600
H952        H  0.12116748  0.76039678  0.77182690     0.00400
H953        H  0.12987950  0.78613708  0.67992554     0.14900
H954        H  0.17377989  0.75632923  0.72742306     0.14700
C955        C  0.85623440  0.74910758  0.79903097     0.86500
C956        C  0.86835264  0.72105349  0.78830091    -0.53700
C957        C  0.87936519  0.72738112  0.76448563     0.09400
C958        C  0.87462705  0.76114043  0.75033970     0.20400
C959        C  0.86890428  0.78003083  0.80035073    -0.54400
C960        C  0.87873348  0.78594149  0.77484064     0.09500
C961        C  0.84424734  0.75672985  0.77261670    -0.54000
C962        C  0.85341784  0.76261464  0.74706133     0.10100
H963        H  0.86826768  0.69762648  0.79953714     0.14600
H964        H  0.88204042  0.76767888  0.73006445     0.00400
H965        H  0.86933814  0.79719595  0.81857678     0.14900
H966        H  0.82947511  0.75842146  0.77412914     0.14700
C967        C  0.64603084  0.50308912  0.80247415     0.86500
C968        C  0.63489142  0.53365415  0.79485877    -0.53700
C969        C  0.62134099  0.52948121  0.77461089     0.09400
C970        C  0.62171862  0.99632857  0.75673659     0.20400
C971        C  0.63100347  0.97844649  0.80569320    -0.54400
C972        C  0.61866402  0.97314671  0.78332559     0.09500
C973        C  0.65414562  0.99339623  0.76882076    -0.54000
C974        C  0.64171675  0.98979090  0.74661507     0.10100
H975        H  0.63672908  0.55667269  0.80658437     0.14600
H976        H  0.61162394  0.99259621  0.73885861     0.00400
H977        H  0.62906025  0.96682936  0.82688408     0.14900
H978        H  0.66864951  0.98941232  0.76534611     0.14700
O979        O  0.47444410  0.78118186  0.77572922    -0.72900
O980        O  0.51392873  0.71428934  0.78997782    -0.73900
O981        O  0.51313354  0.78375023  0.78667626    -0.62500
O982        O  0.47566621  0.71226497  0.77905294    -0.70900
O983        O  0.48125723  0.70981415  0.73073187    -0.70500
O984        O  0.51786535  0.78269156  0.73867272    -0.61700
O985        O  0.51948367  0.71324909  0.74164238    -0.74200
O986        O  0.47986310  0.77911053  0.72757613    -0.73000
Cu987      Cu  0.49412697  0.74801655  0.78455428     1.04600
Cu988      Cu  0.49982518  0.74609725  0.73302141     1.04300
C989        C  0.47065976  0.79035094  0.74939779     0.93300
C990        C  0.52296147  0.70333341  0.76782730     0.92400
C991        C  0.52157064  0.79482251  0.76399934     0.84600
C992        C  0.47246821  0.70002693  0.75355840     0.90800
C993        C  0.35199976  0.50088095  0.69089425     0.86500
C994        C  0.36433430  0.53021464  0.69699133    -0.53700
C995        C  0.37640333  0.52650468  0.71943329     0.09400
C996        C  0.37481582  0.99506273  0.73875276     0.20400
C997        C  0.36457818  0.96987839  0.69300245    -0.54400
C998        C  0.37721298  0.96826808  0.71501018     0.09500
C999        C  0.34251451  0.99217302  0.72637977    -0.54000
C1000       C  0.35482307  0.99058664  0.74946321     0.10100
H1001       H  0.36350690  0.55261664  0.68415191     0.14600
H1002       H  0.38528546  0.99414422  0.75625322     0.00400
H1003       H  0.36316249  0.95014788  0.67709025     0.14900
H1004       H  0.32804000  0.98771657  0.72954577     0.14700
N1005       N  0.25843369  0.85887537  0.02156582    -0.36600
N1006       N  0.28241761  0.88874981  0.97781610    -0.57100
N1007       N  0.25846085  0.86639123  0.93127952    -0.36600
N1008       N  0.23434197  0.83736580  0.97469221    -0.57100
C1009       C  0.26922445  0.87751183  0.03913580     0.27000
C1010       C  0.24312904  0.85158403  0.03721017     0.27000
C1011       C  0.26865961  0.88887589  0.91675942     0.27000
C1012       C  0.24334852  0.86093129  0.91490482     0.27000
C1013       C  0.29317551  0.89125531  0.00193307     0.35600
C1014       C  0.29313528  0.89487717  0.95401321     0.35600
C1015       C  0.22675267  0.82124524  0.99771784     0.35600
C1016       C  0.22726630  0.82412276  0.94985580     0.35600
C1017       C  0.26086133  0.88149219  0.06651180    -0.21900
C1018       C  0.24433246  0.86549859  0.06517979    -0.21900
C1019       C  0.25984922  0.89796128  0.89091186    -0.21900
C1020       C  0.24390831  0.88013901  0.88965758    -0.21900
C1021       C  0.31083254  0.89917206  0.99344207    -0.22900
C1022       C  0.31086965  0.90097527  0.96303522    -0.22900
C1023       C  0.21489977  0.79734133  0.98748390    -0.22900
C1024       C  0.21522882  0.79916185  0.95707046    -0.22900
C1025       C  0.28677711  0.88966705  0.03149116    -0.18300
C1026       C  0.22874183  0.83078758  0.02761567    -0.18300
C1027       C  0.22982552  0.83723419  0.92124544    -0.18300
C1028       C  0.28653076  0.89859447  0.92478923    -0.18300
H1029       H  0.26609872  0.89453763  0.08554563     0.14600
H1030       H  0.23447459  0.86381807  0.08301971     0.14600
H1031       H  0.26466292  0.91496647  0.87427152     0.14600
H1032       H  0.23400738  0.88083580  0.87196039     0.14600
H1033       H  0.32240726  0.90373655  0.00765970     0.12900
H1034       H  0.32245154  0.90732873  0.94925860     0.12900
H1035       H  0.20642827  0.78114969  0.00059206     0.12900
H1036       H  0.20703758  0.78467855  0.94205328     0.12900
H1037       H  0.26219994  0.84889364  0.00125074     0.26200
H1038       H  0.26269542  0.85238870  0.94919579     0.26200
O1039       O  0.01896563  0.97706736  0.27996124    -0.72900
O1040       O  0.98296885  0.54301837  0.29260803    -0.73900
O1041       O  0.98069479  0.97768457  0.29039455    -0.62500
O1042       O  0.02118821  0.54401456  0.27977155    -0.70900
O1043       O  0.01625597  0.54112467  0.23138593    -0.70500
O1044       O  0.97448726  0.98215322  0.24272611    -0.61700
O1045       O  0.97822398  0.54438096  0.24420629    -0.74200
O1046       O  0.01246025  0.97498721  0.23233161    -0.73000
Cu1047     Cu  0.00216196  0.50877505  0.28837534     1.04600
Cu1048     Cu  0.99630973  0.50787662  0.23691786     1.04300
C1049       C  0.02122858  0.96382258  0.25457184     0.93300
C1050       C  0.97458689  0.55471460  0.27036114     0.92400
C1051       C  0.97125689  0.96920582  0.26787556     0.84600
C1052       C  0.02478556  0.55341165  0.25332548     0.90800
C1053       C  0.14270003  0.76821840  0.19762042     0.86500
C1054       C  0.15393641  0.76552045  0.22595997    -0.53700
C1055       C  0.14429677  0.75795789  0.25093615     0.09400
C1056       C  0.12335658  0.75596696  0.24553903     0.20400
C1057       C  0.13134589  0.73609144  0.19656151    -0.54400
C1058       C  0.12119025  0.72926994  0.22142702     0.09500
C1059       C  0.12792869  0.79402780  0.20467214    -0.54000
C1060       C  0.11793711  0.78826290  0.22983692     0.10100
H1061       H  0.16873386  0.76715816  0.22580387     0.14600
H1062       H  0.11511314  0.75149880  0.26574793     0.00400
H1063       H  0.13044372  0.72077359  0.17726901     0.14900
H1064       H  0.12533730  0.81500435  0.19057525     0.14700
C1065       C  0.85399499  0.75384189  0.24599195     0.86500
C1066       C  0.84314722  0.75715602  0.27501084    -0.53700
C1067       C  0.85336370  0.76020600  0.30014096     0.09400
C1068       C  0.87414351  0.75973342  0.29375282     0.20400
C1069       C  0.86708344  0.78377553  0.24585150    -0.54400
C1070       C  0.87736925  0.78756925  0.27113285     0.09500
C1071       C  0.86750443  0.72581462  0.25079926    -0.54000
C1072       C  0.87793318  0.72834707  0.27545342     0.10100
H1073       H  0.82833599  0.75785381  0.27540730     0.14600
H1074       H  0.88232999  0.76149185  0.31421946     0.00400
H1075       H  0.86945454  0.79921723  0.22681814     0.14900
H1076       H  0.86961959  0.70637402  0.23467245     0.14700
C1077       C  0.65069384  0.49254408  0.24218861     0.86500
C1078       C  0.66145208  0.98814615  0.26991509    -0.53700
C1079       C  0.65076894  0.98327114  0.29423070     0.09400
C1080       C  0.63027856  0.98661198  0.28782712     0.20400
C1081       C  0.63702384  0.96431502  0.23942086    -0.54400
C1082       C  0.62627300  0.95988612  0.26442754     0.09500
C1083       C  0.63901324  0.52254983  0.24933572    -0.54000
C1084       C  0.62754034  0.51897019  0.27277132     0.10100
H1085       H  0.67607589  0.98897693  0.27223385     0.14600
H1086       H  0.62285432  0.98476572  0.30884954     0.00400
H1087       H  0.63524906  0.95039986  0.21924900     0.14900
H1088       H  0.63890061  0.54444496  0.23572299     0.14700
C1089       C  0.36002932  0.97445221  0.20739791     0.86500
C1090       C  0.34619921  0.98262622  0.23146472    -0.53700
C1091       C  0.35429144  0.48926578  0.25856194     0.09400
C1092       C  0.37560772  0.48728873  0.25953625     0.20400
C1093       C  0.37410613  0.50449774  0.20826779    -0.54400
C1094       C  0.38192231  0.51124173  0.23538714     0.09500
C1095       C  0.37166975  0.94732462  0.22072092    -0.54000
C1096       C  0.38069092  0.95489224  0.24614658     0.10100
H1097       H  0.33161093  0.98377455  0.22736069     0.14600
H1098       H  0.38165422  0.49328734  0.28116232     0.00400
H1099       H  0.37594991  0.52109924  0.18990954     0.14900
H1100       H  0.37322463  0.92382700  0.20971277     0.14700
O1101       O  0.48261820  0.77139105  0.29626173    -0.72900
O1102       O  0.52097823  0.70205209  0.29599837    -0.73900
O1103       O  0.52128031  0.77177837  0.29707650    -0.62500
O1104       O  0.48168996  0.70183256  0.29282565    -0.70900
O1105       O  0.48366538  0.70331386  0.24415546    -0.70500
O1106       O  0.52230783  0.77169990  0.24807432    -0.61700
O1107       O  0.52199601  0.70189823  0.24724388    -0.74200
O1108       O  0.48336708  0.77308768  0.24713384    -0.73000
Cu1109     Cu  0.50160883  0.73661759  0.29725685     1.04600
Cu1110     Cu  0.50287085  0.73759788  0.24498842     1.04300
C1111       C  0.47700350  0.78334843  0.27195909     0.93300
C1112       C  0.52766024  0.69067424  0.27198751     0.92400
C1113       C  0.52791129  0.78289005  0.27278640     0.84600
C1114       C  0.47635172  0.69158888  0.26741712     0.90800
N1115       N  0.74716560  0.63942714  0.97707774    -0.36600
N1116       N  0.76942931  0.67183428  0.02179869    -0.57100
N1117       N  0.75050686  0.63582095  0.06800977    -0.36600
N1118       N  0.72909314  0.60130178  0.02333723    -0.57100
C1119       C  0.76006135  0.65346134  0.95955544     0.27000
C1120       C  0.73784062  0.61770548  0.96014517     0.27000
C1121       C  0.76451288  0.64888144  0.08364765     0.27000
C1122       C  0.74311334  0.61154761  0.08463261     0.27000
C1123       C  0.77515518  0.68846816  0.99768266     0.35600
C1124       C  0.77620606  0.68778692  0.04555374     0.35600
C1125       C  0.71869784  0.59216367  0.99996600     0.35600
C1126       C  0.72040557  0.59065748  0.04807000     0.35600
C1127       C  0.75858287  0.64113183  0.93105614    -0.21900
C1128       C  0.74447459  0.61895237  0.93132911    -0.21900
C1129       C  0.76593837  0.63286183  0.11057739    -0.21900
C1130       C  0.75246791  0.60930658  0.11118165    -0.21900
C1131       C  0.78560011  0.71516863  0.00611356    -0.22900
C1132       C  0.78612962  0.71492518  0.03648205    -0.22900
C1133       C  0.70353587  0.57506537  0.00990246    -0.22900
C1134       C  0.70448127  0.57449018  0.04028005    -0.22900
C1135       C  0.77275601  0.67792250  0.96817573    -0.18300
C1136       C  0.72311794  0.59756253  0.96969066    -0.18300
C1137       C  0.72728620  0.59312549  0.07740601    -0.18300
C1138       C  0.77538591  0.67603725  0.07493522    -0.18300
H1139       H  0.76669036  0.64768874  0.91187620     0.14600
H1140       H  0.73975633  0.60524137  0.91232726     0.14600
H1141       H  0.77556481  0.63785811  0.12812863     0.14600
H1142       H  0.74968801  0.59273459  0.12931847     0.14600
H1143       H  0.79245092  0.73256285  0.99183303     0.12900
H1144       H  0.79357251  0.73201892  0.05023824     0.12900
H1145       H  0.69288338  0.56407364  0.99666701     0.12900
H1146       H  0.69470730  0.56288215  0.05490064     0.12900
H1147       H  0.74391641  0.64612999  0.99829201     0.26200
H1148       H  0.74498744  0.64536902  0.04903879     0.26200
N1149       N  0.24588119  0.62550793  0.42483175    -0.36600
N1150       N  0.26587673  0.58704716  0.46947806    -0.57100
N1151       N  0.24550216  0.62005393  0.51624978    -0.36600
N1152       N  0.22408749  0.65552365  0.47177123    -0.57100
C1153       C  0.25623877  0.60663263  0.40667017     0.27000
C1154       C  0.23336332  0.64136940  0.40803765     0.27000
C1155       C  0.25474938  0.59793908  0.53269729     0.27000
C1156       C  0.23248594  0.63346488  0.53379978     0.27000
C1157       C  0.27511951  0.57724575  0.44503326     0.35600
C1158       C  0.27479402  0.57441033  0.49305688     0.35600
C1159       C  0.21719461  0.67217955  0.44849733     0.35600
C1160       C  0.21745736  0.67000648  0.49651860     0.35600
C1161       C  0.25055750  0.61136701  0.37770104    -0.21900
C1162       C  0.23604499  0.63282932  0.37861100    -0.21900
C1163       C  0.24773434  0.59776128  0.56125398    -0.21900
C1164       C  0.23362915  0.61992712  0.56189537    -0.21900
C1165       C  0.28957478  0.55727473  0.45323964    -0.22900
C1166       C  0.28942992  0.55569851  0.48353915    -0.22900
C1167       C  0.20604029  0.69727502  0.45856264    -0.22900
C1168       C  0.20626490  0.69598401  0.48892119    -0.22900
C1169       C  0.27086552  0.58566393  0.41527990    -0.18300
C1170       C  0.22000155  0.66423447  0.41822260    -0.18300
C1171       C  0.22022863  0.65886244  0.52585296    -0.18300
C1172       C  0.26987325  0.57893917  0.52316738    -0.18300
H1173       H  0.25616958  0.60034879  0.35785540     0.14600
H1174       H  0.22849908  0.64150134  0.35963880     0.14600
H1175       H  0.25228892  0.58319664  0.57978651     0.14600
H1176       H  0.22532340  0.62572941  0.58106956     0.14600
H1177       H  0.29935877  0.54516282  0.43895340     0.12900
H1178       H  0.29900303  0.54221495  0.49700836     0.12900
H1179       H  0.19843725  0.71462446  0.44540149     0.12900
H1180       H  0.19878340  0.71202469  0.50370871     0.12900
H1181       H  0.24816822  0.62904592  0.44722750     0.26200
H1182       H  0.24920288  0.62828805  0.49534546     0.26200
N1183       N  0.74534384  0.86165454  0.48064626    -0.36600
N1184       N  0.72300397  0.89567749  0.52449794    -0.57100
N1185       N  0.74726678  0.87396689  0.57018300    -0.36600
N1186       N  0.76929433  0.83869366  0.52582504    -0.57100
C1187       C  0.73027602  0.86859109  0.46474674     0.27000
C1188       C  0.75494499  0.83876315  0.46547485     0.27000
C1189       C  0.73277782  0.88419367  0.58659875     0.27000
C1190       C  0.75774100  0.85486552  0.58765881     0.27000
C1191       C  0.71638488  0.90890163  0.49940504     0.35600
C1192       C  0.71724629  0.91495409  0.54702025     0.35600
C1193       C  0.77966509  0.83158664  0.50176980     0.35600
C1194       C  0.78035085  0.83637531  0.54954356     0.35600
C1195       C  0.73014514  0.84962051  0.43922678    -0.21900
C1196       C  0.74570449  0.83063654  0.43976049    -0.21900
C1197       C  0.73407703  0.87133830  0.61487639    -0.21900
C1198       C  0.75000626  0.85352145  0.61575641    -0.21900
C1199       C  0.70635045  0.93677908  0.50593817    -0.22900
C1200       C  0.70697336  0.94071402  0.53617012    -0.22900
C1201       C  0.79739129  0.82485164  0.51025799    -0.22900
C1202       C  0.79769830  0.82690095  0.54052149    -0.22900
C1203       C  0.71798724  0.89438206  0.47111893    -0.18300
C1204       C  0.77285651  0.82852962  0.47262188    -0.18300
C1205       C  0.77468071  0.84056917  0.57932126    -0.18300
C1206       C  0.71932397  0.90695970  0.57725587    -0.18300
H1207       H  0.72020487  0.85023443  0.42158566     0.14600
H1208       H  0.75011975  0.81384096  0.42260510     0.14600
H1209       H  0.72484211  0.87525693  0.63329922     0.14600
H1210       H  0.75528173  0.84122364  0.63508655     0.14600
H1211       H  0.69902125  0.95221863  0.49060777     0.12900
H1212       H  0.70016088  0.95967659  0.54881179     0.12900
H1213       H  0.80881397  0.81812997  0.49627739     0.12900
H1214       H  0.80945219  0.82189299  0.55415256     0.12900
H1215       H  0.75017143  0.87554446  0.49827616     0.26200
H1216       H  0.75101850  0.88251832  0.54936819     0.26200
C1217       C  0.34201227  0.50221893  0.28219689     0.01400
C1218       C  0.33753769  0.98287399  0.30759328     0.04200
C1219       C  0.32621100  0.49584724  0.32955217    -0.11900
C1220       C  0.31834522  0.52716913  0.32641405     0.23500
C1221       C  0.32151164  0.54516881  0.30031581    -0.12400
C1222       C  0.33338353  0.53295261  0.27839405     0.04900
C1223       C  0.30631039  0.54112749  0.34990281     0.27300
C1224       C  0.28821591  0.52986435  0.35332519    -0.13100
C1225       C  0.27670236  0.54402570  0.37488679     0.05400
C1226       C  0.28273839  0.57116128  0.39159907    -0.09100
C1227       C  0.30067714  0.58302266  0.38748771     0.06200
C1228       C  0.31261081  0.56728024  0.36754967    -0.13500
Br1229     Br  0.30934381  0.58658482  0.29448088    -0.05500
Br1230     Br  0.34456920  0.93751219  0.30808444     0.00100
Br1231     Br  0.25280043  0.52580800  0.38201625     0.00500
Br1232     Br  0.33772159  0.58125391  0.36452854    -0.03900
Br1233     Br  0.33763606  0.55869209  0.24306898     0.00600
Br1234     Br  0.32429217  0.97133205  0.36727620    -0.03200
Br1235     Br  0.27903865  0.49565449  0.32788005    -0.04000
Br1236     Br  0.30894267  0.62079829  0.40941337    -0.00100
C1237       C  0.39702306  0.93439594  0.25516865     0.01400
C1238       C  0.40056944  0.92583365  0.28516761     0.04200
C1239       C  0.41316393  0.90070584  0.29182503    -0.11900
C1240       C  0.42365185  0.88634277  0.26919294     0.23500
C1241       C  0.42217320  0.89773380  0.24014643    -0.12400
C1242       C  0.40879181  0.92083157  0.23282244     0.04900
C1243       C  0.43651488  0.85917244  0.27507134     0.27300
C1244       C  0.45464974  0.86616595  0.28305696    -0.13100
C1245       C  0.46786840  0.84120649  0.28238291     0.05400
C1246       C  0.46306689  0.80936955  0.27304866    -0.09100
C1247       C  0.44473644  0.80207252  0.26652967     0.06200
C1248       C  0.43147702  0.82691781  0.26751188    -0.13500
Br1249     Br  0.43873823  0.88083870  0.21013885    -0.05500
Br1250     Br  0.38947776  0.94826486  0.31806279     0.00100
Br1251     Br  0.49262733  0.85088397  0.29364393     0.00500
Br1252     Br  0.40651644  0.81732045  0.25709564    -0.03900
Br1253     Br  0.40786247  0.93281387  0.19141160     0.00600
Br1254     Br  0.41598204  0.88512131  0.33188277    -0.03200
Br1255     Br  0.46149292  0.91043233  0.29310793    -0.04000
Br1256     Br  0.43768475  0.75793702  0.25696569    -0.00100
C1257       C  0.46178836  0.66591589  0.26427124     0.01400
C1258       C  0.45938895  0.64123080  0.28607815     0.04200
C1259       C  0.44657184  0.61585900  0.28179065    -0.11900
C1260       C  0.43547283  0.61538827  0.25643327     0.23500
C1261       C  0.43735963  0.64013075  0.23505956    -0.12400
C1262       C  0.45062571  0.66483097  0.23845785     0.04900
C1263       C  0.42199545  0.58851032  0.25178465     0.27300
C1264       C  0.42546029  0.56393506  0.23072923    -0.13100
C1265       C  0.41201302  0.54032112  0.22417925     0.05400
C1266       C  0.39562810  0.53842343  0.24104963    -0.09100
C1267       C  0.39324966  0.56162552  0.26441173     0.06200
C1268       C  0.40568551  0.58769419  0.26814592    -0.13500
Br1269     Br  0.42156074  0.63989291  0.20081192    -0.05500
Br1270     Br  0.47410588  0.64010886  0.32141424     0.00100
Br1271     Br  0.41715007  0.51038445  0.19258585     0.00500
Br1272     Br  0.40041398  0.62287360  0.29565616    -0.03900
Br1273     Br  0.45282212  0.69661784  0.20686061     0.00600
Br1274     Br  0.44459177  0.58067811  0.31018075    -0.03200
Br1275     Br  0.44909138  0.56230093  0.21152871    -0.04000
Br1276     Br  0.37400922  0.55854179  0.29319918    -0.00100
C1277       C  0.70673951  0.90766693  0.44667005     0.01400
C1278       C  0.71416519  0.93164762  0.42777740     0.04200
C1279       C  0.70370731  0.94421048  0.40441751    -0.11900
C1280       C  0.68570817  0.93309871  0.40007066     0.23500
C1281       C  0.67806572  0.90987399  0.41957090    -0.12400
C1282       C  0.68862642  0.89698930  0.44274861     0.04900
C1283       C  0.67529027  0.94469546  0.37400984     0.27300
C1284       C  0.66531105  0.97407172  0.37531751    -0.13100
C1285       C  0.65674061  0.98632491  0.34969479     0.05400
C1286       C  0.65839918  0.96952354  0.32239513    -0.09100
C1287       C  0.66766527  0.93905996  0.32183803     0.06200
C1288       C  0.67610974  0.92686478  0.34743104    -0.13500
Br1289     Br  0.65314335  0.89594018  0.41445013    -0.05500
Br1290     Br  0.73862266  0.94753698  0.43430517     0.00100
Br1291     Br  0.64309894  0.02627785  0.35249861     0.00500
Br1292     Br  0.68913687  0.88572499  0.34618779    -0.03900
Br1293     Br  0.67847174  0.86450369  0.46900723     0.00600
Br1294     Br  0.71389112  0.47496269  0.38003792    -0.03200
Br1295     Br  0.66379833  0.99760383  0.41234992    -0.04000
Br1296     Br  0.66834386  0.91261676  0.28661290    -0.00100
C1297       C  0.71739146  0.57532823  0.10183449     0.01400
C1298       C  0.70786413  0.59303822  0.12395978     0.04200
C1299       C  0.69764966  0.57637818  0.14579681    -0.11900
C1300       C  0.69618056  0.54193748  0.14510333     0.23500
C1301       C  0.70576323  0.52419211  0.12312558    -0.12400
C1302       C  0.71686780  0.54073229  0.10235515     0.04900
C1303       C  0.68452251  0.52467038  0.16750471     0.27300
C1304       C  0.69250694  0.50735260  0.19099932    -0.13100
C1305       C  0.68170252  0.99221236  0.21067714     0.05400
C1306       C  0.66234385  0.49764534  0.21352767    -0.09100
C1307       C  0.65432662  0.51160502  0.18773405     0.06200
C1308       C  0.66537860  0.52505672  0.16507116    -0.13500
Br1309     Br  0.70312754  0.47725796  0.12075294    -0.05500
Br1310     Br  0.70840117  0.64029003  0.12414067     0.00100
Br1311     Br  0.69323925  0.95664707  0.23146593     0.00500
Br1312     Br  0.65435048  0.54503028  0.13079805    -0.03900
Br1313     Br  0.73181249  0.51596350  0.07509144     0.00600
Br1314     Br  0.68549204  0.60074773  0.17677917    -0.03200
Br1315     Br  0.71870228  0.00800566  0.19235058    -0.04000
Br1316     Br  0.62821988  0.51162511  0.18204465    -0.00100
C1317       C  0.61225215  0.54277960  0.27651530     0.01400
C1318       C  0.59535493  0.53728131  0.26211455     0.04200
C1319       C  0.58137571  0.56082057  0.26371053    -0.11900
C1320       C  0.58445927  0.59096379  0.27791036     0.23500
C1321       C  0.60157165  0.59745309  0.29070241    -0.12400
C1322       C  0.61559622  0.57389407  0.28914662     0.04900
C1323       C  0.57020576  0.61684799  0.27679836     0.27300
C1324       C  0.56940268  0.63810113  0.25237729    -0.13100
C1325       C  0.55543218  0.66171536  0.25033691     0.05400
C1326       C  0.54210976  0.66463680  0.27319470    -0.09100
C1327       C  0.54304956  0.64275030  0.29771085     0.06200
C1328       C  0.55700229  0.61906627  0.29929263    -0.13500
Br1329     Br  0.60593040  0.63927777  0.30928082    -0.05500
Br1330     Br  0.59188293  0.50034214  0.23603645     0.00100
Br1331     Br  0.55544664  0.69010385  0.21612417     0.00500
Br1332     Br  0.55803713  0.58879066  0.33208084    -0.03900
Br1333     Br  0.64005939  0.58646869  0.29981695     0.00600
Br1334     Br  0.55809089  0.55259476  0.24518612    -0.03200
Br1335     Br  0.58768675  0.63450659  0.22156866    -0.04000
Br1336     Br  0.52500127  0.64301981  0.32905805    -0.00100
C1337       C  0.61188125  0.93276057  0.26777774     0.01400
C1338       C  0.59566120  0.93645656  0.28572231     0.04200
C1339       C  0.58262724  0.91096641  0.28752306    -0.11900
C1340       C  0.58435239  0.88288029  0.26994213     0.23500
C1341       C  0.59972817  0.87901147  0.25179797    -0.12400
C1342       C  0.61397056  0.90226026  0.25234875     0.04900
C1343       C  0.56990648  0.85719823  0.27073977     0.27300
C1344       C  0.57118744  0.83086911  0.29072313    -0.13100
C1345       C  0.55745070  0.80667997  0.29165163     0.05400
C1346       C  0.54214986  0.80891797  0.27277985    -0.09100
C1347       C  0.54093311  0.83554401  0.25276590     0.06200
C1348       C  0.55476904  0.85948453  0.25181492    -0.13500
Br1349     Br  0.60096896  0.84147475  0.22568389    -0.05500
Br1350     Br  0.58888881  0.97564237  0.30731013     0.00100
Br1351     Br  0.56045923  0.76938713  0.31736327     0.00500
Br1352     Br  0.55312916  0.89568839  0.22451587    -0.03900
Br1353     Br  0.63670533  0.88825604  0.23456928     0.00600
Br1354     Br  0.56166714  0.91423297  0.31374016    -0.03200
Br1355     Br  0.59194689  0.82807834  0.31672297    -0.04000
Br1356     Br  0.52016758  0.84028722  0.22687820    -0.00100
C1357       C  0.84447916  0.76550183  0.33005470     0.01400
C1358       C  0.82953409  0.74561290  0.33882072     0.04200
C1359       C  0.81804173  0.75515037  0.36240863    -0.11900
C1360       C  0.82266534  0.78216818  0.38029515     0.23500
C1361       C  0.83900533  0.79921173  0.37443697    -0.12400
C1362       C  0.84930546  0.79220638  0.34867162     0.04900
C1363       C  0.80992257  0.79375833  0.40410490     0.27300
C1364       C  0.80072842  0.82390383  0.40096464    -0.13100
C1365       C  0.78960336  0.83593714  0.42403322     0.05400
C1366       C  0.78517444  0.81577760  0.44846887    -0.09100
C1367       C  0.79322400  0.78432783  0.45032128     0.06200
C1368       C  0.80665990  0.77468484  0.42960541    -0.13500
Br1369     Br  0.84700999  0.83282868  0.40166851    -0.05500
Br1370     Br  0.82513536  0.70400410  0.32006784     0.00100
Br1371     Br  0.78154838  0.88094650  0.42274259     0.00500
Br1372     Br  0.82116989  0.73613823  0.43685148    -0.03900
Br1373     Br  0.86880646  0.82171893  0.33878380     0.00600
Br1374     Br  0.79527402  0.73233011  0.36889420    -0.03200
Br1375     Br  0.80291852  0.84848539  0.36464870    -0.04000
Br1376     Br  0.78551366  0.75380061  0.48046337    -0.00100
C1377       C  0.78724949  0.69213245  0.09753478     0.01400
C1378       C  0.80626429  0.68659888  0.09746138     0.04200
C1379       C  0.81736305  0.70164890  0.11892547    -0.11900
C1380       C  0.80942696  0.72078115  0.14154792     0.23500
C1381       C  0.79053022  0.72729565  0.14100859    -0.12400
C1382       C  0.77953293  0.71345702  0.11874248     0.04900
C1383       C  0.82044124  0.73012132  0.16789520     0.27300
C1384       C  0.82307222  0.70701793  0.19038402    -0.13100
C1385       C  0.83311167  0.71519306  0.21587251     0.05400
C1386       C  0.84123291  0.74695505  0.21914059    -0.09100
C1387       C  0.83635102  0.77110588  0.19775615     0.06200
C1388       C  0.82704912  0.76212136  0.17159739    -0.13500
Br1389     Br  0.77965167  0.75439888  0.17132717    -0.05500
Br1390     Br  0.81700508  0.65724940  0.06876375     0.00100
Br1391     Br  0.83408793  0.68215595  0.24653032     0.00500
Br1392     Br  0.82281855  0.79386633  0.14071884    -0.03900
Br1393     Br  0.75385714  0.72358332  0.11721185     0.00600
Br1394     Br  0.84346562  0.69585832  0.11780829    -0.03200
Br1395     Br  0.81245946  0.66378615  0.18610672    -0.04000
Br1396     Br  0.83754512  0.81731042  0.20594799    -0.00100
C1397       C  0.20771241  0.68038251  0.39599451     0.01400
C1398       C  0.21372224  0.70783692  0.37970910     0.04200
C1399       C  0.20200255  0.72312419  0.35919572    -0.11900
C1400       C  0.18430259  0.71069923  0.35423551     0.23500
C1401       C  0.17808415  0.68387406  0.37113162    -0.12400
C1402       C  0.18965521  0.66901577  0.39211831     0.04900
C1403       C  0.17341994  0.72271091  0.32844950     0.27300
C1404       C  0.16011859  0.74747959  0.33155179    -0.13100
C1405       C  0.15053003  0.75909296  0.30648519     0.05400
C1406       C  0.15399607  0.74569868  0.27809042    -0.09100
C1407       C  0.16686639  0.71979424  0.27549299     0.06200
C1408       C  0.17664452  0.70890470  0.30036502    -0.13500
Br1409     Br  0.15387126  0.66686021  0.36466981    -0.05500
Br1410     Br  0.23811009  0.72427107  0.38536097     0.00100
Br1411     Br  0.13298026  0.79377187  0.31123518     0.00500
Br1412     Br  0.19455722  0.67444071  0.29617478    -0.03900
Br1413     Br  0.18089391  0.63257602  0.41527225     0.00600
Br1414     Br  0.21022751  0.76080932  0.33722281    -0.03200
Br1415     Br  0.15514499  0.76541691  0.37024416    -0.04000
Br1416     Br  0.17023463  0.69643150  0.23860442    -0.00100
C1417       C  0.03399803  0.93531351  0.25130709     0.01400
C1418       C  0.03625927  0.91277700  0.27499272     0.04200
C1419       C  0.04919508  0.88729795  0.27288973    -0.11900
C1420       C  0.05983165  0.88351335  0.24711157     0.23500
C1421       C  0.05706034  0.90466795  0.22296264    -0.12400
C1422       C  0.04426635  0.93042694  0.22491462     0.04900
C1423       C  0.07447218  0.85813132  0.24571903     0.27300
C1424       C  0.09278504  0.86714618  0.25026917    -0.13100
C1425       C  0.10684094  0.84382962  0.24700189     0.05400
C1426       C  0.10280114  0.81102461  0.23925840    -0.09100
C1427       C  0.08422114  0.80162888  0.23727641     0.06200
C1428       C  0.07019951  0.82519196  0.23971517    -0.13500
Br1429     Br  0.07123397  0.89842324  0.18722657    -0.05500
Br1430     Br  0.02120093  0.91501288  0.31022837     0.00100
Br1431     Br  0.13155317  0.85695445  0.25470951     0.00500
Br1432     Br  0.04504634  0.81274105  0.23361195    -0.03900
Br1433     Br  0.04179907  0.95935403  0.19137082     0.00600
Br1434     Br  0.05263505  0.85753983  0.30559869    -0.03200
Br1435     Br  0.09853827  0.91191066  0.26049534    -0.04000
Br1436     Br  0.07734759  0.75687344  0.23140508    -0.00100
C1437       C  0.10826102  0.70030519  0.22402786     0.01400
C1438       C  0.10638864  0.68311459  0.25126105     0.04200
C1439       C  0.09225251  0.66011805  0.25541429    -0.11900
C1440       C  0.08118649  0.65060850  0.23159294     0.23500
C1441       C  0.08387809  0.66518243  0.20373824    -0.12400
C1442       C  0.09653250  0.69105298  0.20022175     0.04900
C1443       C  0.06655601  0.62556722  0.23612105     0.27300
C1444       C  0.07101832  0.59200864  0.23751950    -0.13100
C1445       C  0.05739516  0.56857336  0.24375348     0.05400
C1446       C  0.03911418  0.57834703  0.24774032    -0.09100
C1447       C  0.03449186  0.61170999  0.24482449     0.06200
C1448       C  0.04821001  0.63532738  0.23971877    -0.13500
Br1449     Br  0.06970910  0.64988359  0.17049735    -0.05500
Br1450     Br  0.12362636  0.68796683  0.28294800     0.00100
Br1451     Br  0.06369191  0.52288171  0.24638057     0.00500
Br1452     Br  0.04193795  0.68115982  0.23784461    -0.03900
Br1453     Br  0.09516490  0.71589405  0.16386150     0.00600
Br1454     Br  0.08752800  0.64212087  0.29426587    -0.03200
Br1455     Br  0.09579536  0.57818849  0.23031093    -0.04000
Br1456     Br  0.00930848  0.62497510  0.24688928    -0.00100
C1457       C  0.96047489  0.58017308  0.27510009     0.01400
C1458       C  0.96377079  0.60696111  0.29436269     0.04200
C1459       C  0.95061988  0.63183620  0.29755367    -0.11900
C1460       C  0.93408335  0.62985956  0.28198604     0.23500
C1461       C  0.93027330  0.60226965  0.26434601    -0.12400
C1462       C  0.94338769  0.57743633  0.26091239     0.04900
C1463       C  0.92095550  0.65741141  0.28273784     0.27300
C1464       C  0.90698995  0.65845066  0.30422701    -0.13100
C1465       C  0.89347667  0.68290239  0.30291778     0.05400
C1466       C  0.89358720  0.70572899  0.27959505    -0.09100
C1467       C  0.90784965  0.70488924  0.25828856     0.06200
C1468       C  0.92165676  0.68117664  0.26028061    -0.13500
Br1469     Br  0.90689824  0.59867715  0.24502903    -0.03100
Br1470     Br  0.98632979  0.61053877  0.31613026     0.00100
Br1471     Br  0.87417054  0.68374290  0.33191695     0.00500
Br1472     Br  0.94132703  0.68034504  0.23165194    -0.03900
Br1473     Br  0.93725799  0.53873436  0.23837240     0.00600
Br1474     Br  0.95518853  0.66893653  0.32301541    -0.03200
Br1475     Br  0.90589563  0.62512382  0.33434599    -0.04000
Br1476     Br  0.90882912  0.73642676  0.22640320    -0.00100
C1477       C  0.89050475  0.81571218  0.27519333     0.01400
C1478       C  0.90879754  0.81109085  0.28488870     0.04200
C1479       C  0.92113350  0.83756445  0.28520636    -0.11900
C1480       C  0.91538208  0.86898907  0.27694070     0.23500
C1481       C  0.89703958  0.87447168  0.26972331    -0.12400
C1482       C  0.88458994  0.84818765  0.26931476     0.04900
C1483       C  0.92897652  0.89580828  0.27450349     0.27300
C1484       C  0.93211209  0.91721955  0.29840438    -0.13100
C1485       C  0.94547294  0.94195652  0.29606378     0.05400
C1486       C  0.95666809  0.94392957  0.27043949    -0.09100
C1487       C  0.95369890  0.92156838  0.24683738     0.06200
C1488       C  0.93946127  0.89857024  0.24851811    -0.13500
Br1489     Br  0.88915212  0.91824330  0.26005463    -0.05500
Br1490     Br  0.91795371  0.76974462  0.29858806     0.00100
Br1491     Br  0.94742609  0.97390933  0.32748056     0.00500
Br1492     Br  0.93428416  0.87025940  0.21523676    -0.03900
Br1493     Br  0.85907423  0.85805616  0.26416472     0.00600
Br1494     Br  0.94635125  0.83104417  0.29633411    -0.03200
Br1495     Br  0.91818179  0.91210267  0.33446395    -0.04000
Br1496     Br  0.96980331  0.91992534  0.21282302    -0.00100
C1497       C  0.21483600  0.81955168  0.04986076     0.01400
C1498       C  0.22001773  0.79833412  0.07295250     0.04200
C1499       C  0.20760020  0.79060200  0.09576999    -0.11900
C1500       C  0.18950669  0.80239278  0.09487498     0.23500
C1501       C  0.18401382  0.82231651  0.07105714    -0.12400
C1502       C  0.19666674  0.83122820  0.04882252     0.04900
C1503       C  0.17660841  0.79442773  0.11959636     0.27300
C1504       C  0.16951043  0.76264152  0.12237928    -0.13100
C1505       C  0.16055359  0.75287980  0.14867037     0.05400
C1506       C  0.15513471  0.77659987  0.17036713    -0.09100
C1507       C  0.16311470  0.80846749  0.16761402     0.06200
C1508       C  0.17375964  0.81703269  0.14260984    -0.13500
Br1509     Br  0.15921496  0.83794545  0.06936937    -0.05500
Br1510     Br  0.24413127  0.77937229  0.07308057     0.00100
Br1511     Br  0.16239087  0.70670450  0.15747120     0.00500
Br1512     Br  0.18548717  0.85945414  0.14031020    -0.03900
Br1513     Br  0.18913912  0.86028287  0.01749677     0.00600
Br1514     Br  0.21564479  0.76490196  0.12906953    -0.03200
Br1515     Br  0.17329555  0.73162459  0.09053744    -0.04000
Br1516     Br  0.16221517  0.83995384  0.19940233    -0.00100
C1517       C  0.29858997  0.90333454  0.05543136     0.01400
C1518       C  0.31255451  0.88412647  0.06790459     0.04200
C1519       C  0.32343593  0.89691591  0.09083574    -0.11900
C1520       C  0.32022114  0.92880891  0.10179362     0.23500
C1521       C  0.30650724  0.94823525  0.08894105    -0.12400
C1522       C  0.29583502  0.93564648  0.06565880     0.04900
C1523       C  0.33050871  0.94093240  0.12803913     0.27300
C1524       C  0.32568367  0.92975161  0.15633224    -0.13100
C1525       C  0.33620275  0.93843535  0.18111184     0.05400
C1526       C  0.35063948  0.96197120  0.17865707    -0.09100
C1527       C  0.35641516  0.97048526  0.14942171     0.06200
C1528       C  0.34598968  0.96090248  0.12455696    -0.13500
Br1529     Br  0.30836538  0.49834981  0.09954666    -0.05500
Br1530     Br  0.31662577  0.84015924  0.05369040     0.00100
Br1531     Br  0.33163451  0.91396566  0.21722658     0.00500
Br1532     Br  0.35315560  0.97412634  0.08510947    -0.03900
Br1533     Br  0.27722608  0.96248264  0.04791328     0.00600
Br1534     Br  0.34263981  0.87063306  0.10766062    -0.03200
Br1535     Br  0.30437516  0.90221707  0.16098940    -0.04000
Br1536     Br  0.38036735  0.98763189  0.14103803    -0.00100
C1537       C  0.34870443  0.98281631  0.78072281     0.01400
C1538       C  0.35706757  0.95846140  0.79866202     0.04200
C1539       C  0.34793379  0.94648057  0.82407078    -0.11900
C1540       C  0.33026600  0.95756885  0.83118888     0.23500
C1541       C  0.32282990  0.98388949  0.81527364    -0.12400
C1542       C  0.33271170  0.99790555  0.79180014     0.04900
C1543       C  0.31972162  0.94208189  0.85574193     0.27300
C1544       C  0.31270697  0.91012383  0.85238252    -0.13100
C1545       C  0.30318598  0.89515396  0.87586229     0.05400
C1546       C  0.29858064  0.91341601  0.90147606    -0.09100
C1547       C  0.30496549  0.94597954  0.90419617     0.06200
C1548       C  0.31653435  0.95930182  0.88235398    -0.13500
Br1549     Br  0.29877026  0.00022569  0.82472863    -0.05500
Br1550     Br  0.38108553  0.94152827  0.79085794     0.00100
Br1551     Br  0.29690821  0.84929830  0.87306776     0.00500
Br1552     Br  0.32816861  0.50031939  0.88198979    -0.03900
Br1553     Br  0.32600669  0.04089609  0.77866221     0.00600
Br1554     Br  0.35948608  0.91466318  0.84950694    -0.03200
Br1555     Br  0.31565724  0.88715128  0.81524419    -0.04000
Br1556     Br  0.29703971  0.97335720  0.93667845    -0.00100
C1557       C  0.28180089  0.56414915  0.54640280     0.01400
C1558       C  0.29740240  0.58134608  0.55593003     0.04200
C1559       C  0.30842383  0.56849856  0.57854093    -0.11900
C1560       C  0.30374761  0.53859536  0.59223080     0.23500
C1561       C  0.28833755  0.52107822  0.58240492    -0.12400
C1562       C  0.27754707  0.53357134  0.55921507     0.04900
C1563       C  0.31496605  0.52627264  0.61733292     0.27300
C1564       C  0.32982657  0.50542057  0.61193870    -0.13100
C1565       C  0.34241898  0.49823234  0.63467743     0.05400
C1566       C  0.33909041  0.50895979  0.66451173    -0.09100
C1567       C  0.32483239  0.53241351  0.66854666     0.06200
C1568       C  0.31246136  0.53957218  0.64567789    -0.13500
Br1569     Br  0.28712325  0.96693184  0.59373762    -0.05500
Br1570     Br  0.30360419  0.62271940  0.53792324     0.00100
Br1571     Br  0.36593971  0.48254091  0.62108810     0.00500
Br1572     Br  0.29228474  0.56918976  0.65258975    -0.03900
Br1573     Br  0.25700000  0.50889219  0.54483280     0.00600
Br1574     Br  0.32994277  0.59199202  0.59099116    -0.03200
Br1575     Br  0.33341231  0.48849034  0.57230090    -0.04000
Br1576     Br  0.32407809  0.56112068  0.70241592    -0.00100
C1577       C  0.45551834  0.81401923  0.74399516     0.01400
C1578       C  0.44432615  0.81089409  0.71856030     0.04200
C1579       C  0.43106315  0.83485970  0.71217727    -0.11900
C1580       C  0.42787290  0.86078304  0.73216055     0.23500
C1581       C  0.43798584  0.86253904  0.75858805    -0.12400
C1582       C  0.45218690  0.84014134  0.76398599     0.04900
C1583       C  0.41462977  0.88733150  0.72506224     0.27300
C1584       C  0.42119204  0.91863419  0.71729952    -0.13100
C1585       C  0.40907456  0.94521597  0.71489786     0.05400
C1586       C  0.39010632  0.94022163  0.71774941    -0.09100
C1587       C  0.38342447  0.90836078  0.72366262     0.06200
C1588       C  0.39568417  0.88225131  0.72816572    -0.13500
Br1589     Br  0.43234281  0.89608730  0.78744155    -0.05500
Br1590     Br  0.44616615  0.77301151  0.69296489     0.00100
Br1591     Br  0.41871477  0.98842331  0.70823063     0.00500
Br1592     Br  0.38658401  0.83987816  0.73996683    -0.03900
Br1593     Br  0.46774682  0.84744920  0.79779996     0.00600
Br1594     Br  0.41754011  0.83270125  0.67562482    -0.03200
Br1595     Br  0.44693064  0.92494102  0.70989540    -0.04000
Br1596     Br  0.35753425  0.90088244  0.72842239    -0.00100
C1597       C  0.39047269  0.55217142  0.72594601     0.01400
C1598       C  0.39369740  0.56297403  0.75530361     0.04200
C1599       C  0.40704776  0.58706312  0.76095019    -0.11900
C1600       C  0.41622172  0.60244091  0.73730326     0.23500
C1601       C  0.41244992  0.59296892  0.70800540    -0.12400
C1602       C  0.40042813  0.56690223  0.70235051     0.04900
C1603       C  0.43063499  0.62727631  0.74301424     0.27300
C1604       C  0.42598372  0.65940413  0.75174446    -0.13100
C1605       C  0.43978703  0.68285868  0.75632082     0.05400
C1606       C  0.45816781  0.67485827  0.75036084    -0.09100
C1607       C  0.46274184  0.64300736  0.74088659     0.06200
C1608       C  0.44910135  0.61896509  0.73834829    -0.13500
Br1609     Br  0.42391041  0.61592976  0.67543612    -0.05500
Br1610     Br  0.37929793  0.54686160  0.78803357     0.00100
Br1611     Br  0.43340775  0.72642241  0.76945934     0.00500
Br1612     Br  0.45568694  0.57443617  0.72854460    -0.03900
Br1613     Br  0.39925940  0.55025594  0.66216616     0.00600
Br1614     Br  0.41308995  0.59876573  0.80118678    -0.03200
Br1615     Br  0.40069440  0.67159528  0.75635544    -0.04000
Br1616     Br  0.48765107  0.63218405  0.73113665    -0.00100
C1617       C  0.66109142  0.51149187  0.82565797     0.01400
C1618       C  0.67231962  0.53978970  0.82146767     0.04200
C1619       C  0.68277445  0.55266139  0.84501263    -0.11900
C1620       C  0.68257110  0.53745060  0.87291590     0.23500
C1621       C  0.67332548  0.50750788  0.87624171    -0.12400
C1622       C  0.66366404  0.99354264  0.84870806     0.04900
C1623       C  0.69272956  0.55215695  0.89838470     0.27300
C1624       C  0.70980727  0.53943315  0.90698691    -0.13100
C1625       C  0.71908662  0.55284042  0.93149668     0.05400
C1626       C  0.71204746  0.58060788  0.94631185    -0.09100
C1627       C  0.69500424  0.59340108  0.93763687     0.06200
C1628       C  0.68521489  0.57878001  0.91422600    -0.13500
Br1629     Br  0.67319067  0.98465998  0.91066136    -0.05500
Br1630     Br  0.67436458  0.56105247  0.78332594     0.00100
Br1631     Br  0.74152919  0.53327547  0.94486897     0.00500
Br1632     Br  0.66142349  0.59512856  0.90375316    -0.03900
Br1633     Br  0.65958191  0.94704214  0.85007760     0.00600
Br1634     Br  0.69732749  0.59163745  0.83935407    -0.03200
Br1635     Br  0.72077359  0.50430498  0.88452875    -0.04000
Br1636     Br  0.68514827  0.63122366  0.95770180    -0.00100
C1637       C  0.64798034  0.98008229  0.71612524     0.01400
C1638       C  0.65663960  0.00320114  0.69749306     0.04200
C1639       C  0.66631081  0.99283844  0.67198865    -0.11900
C1640       C  0.66904683  0.95916589  0.66650538     0.23500
C1641       C  0.65993877  0.93612563  0.68449157    -0.12400
C1642       C  0.64864993  0.94672385  0.70797542     0.04900
C1643       C  0.68185928  0.94785497  0.64262787     0.27300
C1644       C  0.67514702  0.93157398  0.61735485    -0.13100
C1645       C  0.68730094  0.91672861  0.59709975     0.05400
C1646       C  0.70637586  0.92173777  0.59963032    -0.09100
C1647       C  0.71297754  0.94066223  0.62361123     0.06200
C1648       C  0.70089487  0.95189240  0.64584717    -0.13500
Br1649     Br  0.66380264  0.88979337  0.67825910    -0.05500
Br1650     Br  0.65224373  0.54701663  0.70922651     0.00100
Br1651     Br  0.67759003  0.88770668  0.56721401     0.00500
Br1652     Br  0.71053909  0.97160477  0.68139160    -0.03900
Br1653     Br  0.63392338  0.91520882  0.72824924     0.00600
Br1654     Br  0.67076639  0.52305082  0.64507409    -0.03200
Br1655     Br  0.64919860  0.92994174  0.61034869    -0.04000
Br1656     Br  0.73850262  0.95213207  0.62583272    -0.00100
C1657       C  0.60614111  0.55434871  0.77308900     0.01400
C1658       C  0.59912959  0.56828808  0.79985667     0.04200
C1659       C  0.58654370  0.59418127  0.79900277    -0.11900
C1660       C  0.57905536  0.60412428  0.77193769     0.23500
C1661       C  0.58454937  0.58855036  0.74551214    -0.12400
C1662       C  0.59821697  0.56414882  0.74589917     0.04900
C1663       C  0.56474376  0.62995048  0.77168773     0.27300
C1664       C  0.54689933  0.62264484  0.78152865    -0.13100
C1665       C  0.53358595  0.64744529  0.78283259     0.05400
C1666       C  0.53763786  0.67900445  0.77204449    -0.09100
C1667       C  0.55559974  0.68656484  0.76306916     0.06200
C1668       C  0.56917484  0.66219763  0.76321270    -0.13500
Br1669     Br  0.57295030  0.60056038  0.70879825    -0.05500
Br1670     Br  0.60402597  0.54921316  0.83831815     0.00100
Br1671     Br  0.51001302  0.63820989  0.80000907     0.00500
Br1672     Br  0.59388471  0.67294504  0.75198963    -0.03900
Br1673     Br  0.60506231  0.54395371  0.70896214     0.00600
Br1674     Br  0.57933556  0.61615078  0.83521366    -0.03200
Br1675     Br  0.54060036  0.57836483  0.79248006    -0.04000
Br1676     Br  0.56183277  0.73094697  0.75246548    -0.00100
C1677       C  0.53582698  0.82138751  0.76713859     0.01400
C1678       C  0.54789251  0.82936937  0.74322156     0.04200
C1679       C  0.56140477  0.85374476  0.74670158    -0.11900
C1680       C  0.56352670  0.86997813  0.77389827     0.23500
C1681       C  0.55180571  0.86251242  0.79761677    -0.12400
C1682       C  0.53781033  0.83904244  0.79429143     0.04900
C1683       C  0.57755059  0.89622626  0.77722145     0.27300
C1684       C  0.59533820  0.88858503  0.78639504    -0.13100
C1685       C  0.60845508  0.91362301  0.79022789     0.05400
C1686       C  0.60403091  0.94688053  0.78401276    -0.09100
C1687       C  0.58576743  0.95415911  0.77592221     0.06200
C1688       C  0.57282842  0.92898259  0.77193993    -0.13500
Br1689     Br  0.55499479  0.88526258  0.83484099    -0.05500
Br1690     Br  0.54680685  0.80784101  0.70501035     0.00100
Br1691     Br  0.63253248  0.90077647  0.80273896     0.00500
Br1692     Br  0.54845424  0.93903030  0.75849161    -0.03900
Br1693     Br  0.52114909  0.83371194  0.82733566     0.00600
Br1694     Br  0.57715899  0.86568172  0.71399195    -0.03200
Br1695     Br  0.60178532  0.84322999  0.79241419    -0.04000
Br1696     Br  0.57724139  0.99840553  0.77299044    -0.00100
C1697       C  0.84494107  0.73847025  0.82659894     0.01400
C1698       C  0.83049663  0.71506746  0.82329865     0.04200
C1699       C  0.81897443  0.70727743  0.84733678    -0.11900
C1700       C  0.82168847  0.72187126  0.87511961     0.23500
C1701       C  0.83693149  0.74215890  0.87953499    -0.12400
C1702       C  0.84916258  0.74862617  0.85601695     0.04900
C1703       C  0.80963503  0.71260878  0.90039420     0.27300
C1704       C  0.79238182  0.72744426  0.90396636    -0.13100
C1705       C  0.78042195  0.71669089  0.92647312     0.05400
C1706       C  0.78561984  0.69091435  0.94532448    -0.09100
C1707       C  0.80299371  0.67650824  0.94208177     0.06200
C1708       C  0.81492412  0.68719302  0.91961474    -0.13500
Br1709     Br  0.84151851  0.75965019  0.91859850    -0.05500
Br1710     Br  0.82703941  0.69010905  0.78711589     0.00100
Br1711     Br  0.75686638  0.73692759  0.93149870     0.00500
Br1712     Br  0.83823039  0.66598005  0.91424070    -0.03900
Br1713     Br  0.87331168  0.76259399  0.86718949     0.00600
Br1714     Br  0.79972348  0.67519223  0.84286905    -0.03200
Br1715     Br  0.78498576  0.76173889  0.87733158    -0.04000
Br1716     Br  0.81021454  0.64138159  0.96802988    -0.00100
C1717       C  0.84315945  0.77382077  0.72066845     0.01400
C1718       C  0.83263091  0.80291829  0.72224512     0.04200
C1719       C  0.82258574  0.81326465  0.69760406    -0.11900
C1720       C  0.82274655  0.79457206  0.67138302     0.23500
C1721       C  0.83268102  0.76505677  0.67007940    -0.12400
C1722       C  0.84220922  0.75405545  0.69513636     0.04900
C1723       C  0.81112920  0.80483543  0.64631099     0.27300
C1724       C  0.79444265  0.78868726  0.64107511    -0.13100
C1725       C  0.78302709  0.79930791  0.61814259     0.05400
C1726       C  0.78709458  0.82854900  0.60290829    -0.09100
C1727       C  0.80345028  0.84550031  0.60907491     0.06200
C1728       C  0.81595772  0.83243466  0.62934166    -0.13500
Br1729     Br  0.83284132  0.73934882  0.63417236    -0.05500
Br1730     Br  0.83167765  0.82908878  0.75810172     0.00100
Br1731     Br  0.76200656  0.77346075  0.60734726     0.00500
Br1732     Br  0.83973990  0.85209344  0.63385809    -0.03900
Br1733     Br  0.85093908  0.70964273  0.69630947     0.00600
Br1734     Br  0.80811134  0.85277227  0.70003620    -0.03200
Br1735     Br  0.78680701  0.75295630  0.66616841    -0.04000
Br1736     Br  0.80870438  0.88666944  0.58987307    -0.00100
C1737       C  0.21715741  0.82698729  0.89723549     0.01400
C1738       C  0.22304889  0.80474968  0.87528256     0.04200
C1739       C  0.21095674  0.79458513  0.85295498    -0.11900
C1740       C  0.19288530  0.80638895  0.85263793     0.23500
C1741       C  0.18704855  0.82888532  0.87437035    -0.12400
C1742       C  0.19919987  0.83935484  0.89650655     0.04900
C1743       C  0.18037328  0.79625254  0.82852158     0.27300
C1744       C  0.18081206  0.81302334  0.80139017    -0.13100
C1745       C  0.17012717  0.80204630  0.77758683     0.05400
C1746       C  0.15913972  0.77358882  0.78059938    -0.09100
C1747       C  0.15804434  0.75783692  0.80833229     0.06200
C1748       C  0.16854395  0.76935332  0.83229555    -0.13500
Br1749     Br  0.16246887  0.84563861  0.87338626    -0.05500
Br1750     Br  0.24768080  0.78815612  0.87592754     0.00100
Br1751     Br  0.16989149  0.82759256  0.74152576     0.00500
Br1752     Br  0.16702945  0.74811834  0.87031953    -0.03900
Br1753     Br  0.19148561  0.87145968  0.92532544     0.00600
Br1754     Br  0.21914010  0.76477977  0.82246148    -0.03200
Br1755     Br  0.19626698  0.85106199  0.79697333    -0.04000
Br1756     Br  0.14301263  0.71948807  0.81332918    -0.00100
C1757       C  0.20916520  0.67413572  0.54999587     0.01400
C1758       C  0.19092253  0.66431667  0.55462460     0.04200
C1759       C  0.18081711  0.67738974  0.57844933    -0.11900
C1760       C  0.18887405  0.70044851  0.59763166     0.23500
C1761       C  0.20708402  0.71039134  0.59289338    -0.12400
C1762       C  0.21715154  0.69747371  0.56898815     0.04900
C1763       C  0.17866442  0.71269177  0.62394455     0.27300
C1764       C  0.16971657  0.74308004  0.62322150    -0.13100
C1765       C  0.16138350  0.75590727  0.64903238     0.05400
C1766       C  0.15960139  0.73614630  0.67492256    -0.09100
C1767       C  0.17045443  0.70705890  0.67597372     0.06200
C1768       C  0.17962636  0.69539516  0.65062657    -0.13500
Br1769     Br  0.21843388  0.74068609  0.62000839    -0.05500
Br1770     Br  0.17997979  0.63233888  0.52867282     0.00100
Br1771     Br  0.15834333  0.80285536  0.65001986     0.00500
Br1772     Br  0.19418348  0.65589807  0.65236415    -0.03900
Br1773     Br  0.24195355  0.71151752  0.56224522     0.00600
Br1774     Br  0.15615079  0.66290640  0.58560252    -0.03200
Br1775     Br  0.16970449  0.76775256  0.58678646    -0.04000
Br1776     Br  0.17519038  0.68433968  0.71254733    -0.00100
C1777       C  0.10874915  0.80474134  0.72769177     0.01400
C1778       C  0.09434033  0.80483624  0.70674122     0.04200
C1779       C  0.08039092  0.82856407  0.70849200    -0.11900
C1780       C  0.08041196  0.85202932  0.73133325     0.23500
C1781       C  0.09422759  0.85146363  0.75277343    -0.12400
C1782       C  0.10824871  0.82795075  0.75117552     0.04900
C1783       C  0.06610217  0.87782798  0.73276936     0.27300
C1784       C  0.06833790  0.90695225  0.71653632    -0.13100
C1785       C  0.05563964  0.93261258  0.71960269     0.05400
C1786       C  0.04034781  0.92904337  0.73854808    -0.09100
C1787       C  0.03791045  0.89944379  0.75425433     0.06200
C1788       C  0.05084375  0.87407153  0.75155343    -0.13500
Br1789     Br  0.09387042  0.88355045  0.78436644    -0.05500
Br1790     Br  0.09222188  0.77047951  0.67742839     0.00100
Br1791     Br  0.06002607  0.97332071  0.69912873     0.00500
Br1792     Br  0.04781165  0.83406660  0.77368972    -0.03900
Br1793     Br  0.12644544  0.82890448  0.78167453     0.00600
Br1794     Br  0.06092926  0.82887244  0.67985883    -0.03200
Br1795     Br  0.08910802  0.91172884  0.69045309    -0.04000
Br1796     Br  0.01643620  0.89277474  0.77843619    -0.00100
C1797       C  0.04262278  0.57226462  0.73922557     0.01400
C1798       C  0.05550283  0.57126871  0.76254088     0.04200
C1799       C  0.06843135  0.59647192  0.76571767    -0.11900
C1800       C  0.07028751  0.62052696  0.74362362     0.23500
C1801       C  0.05849394  0.62008267  0.71902608    -0.12400
C1802       C  0.04409148  0.59723664  0.71763734     0.04900
C1803       C  0.08455452  0.64636018  0.74634866     0.27300
C1804       C  0.07963516  0.67892620  0.75288145    -0.13100
C1805       C  0.09296597  0.70395885  0.75272403     0.05400
C1806       C  0.11161439  0.69618177  0.74752382    -0.09100
C1807       C  0.11648482  0.66267065  0.74639034     0.06200
C1808       C  0.10310562  0.63827159  0.74336197    -0.13500
Br1809     Br  0.06217803  0.65080003  0.68709993    -0.05500
Br1810     Br  0.05666337  0.53435849  0.78922847     0.00100
Br1811     Br  0.08480392  0.74788392  0.76014445     0.00500
Br1812     Br  0.11027491  0.59403942  0.73349732    -0.03900
Br1813     Br  0.02580754  0.60232957  0.68732040     0.00600
Br1814     Br  0.08321699  0.59866414  0.80099360    -0.03200
Br1815     Br  0.05439554  0.68905420  0.76156029    -0.04000
Br1816     Br  0.14131633  0.64949955  0.75253520    -0.00100
C1817       C  0.96343284  0.58032646  0.73954352     0.01400
C1818       C  0.96746638  0.60905547  0.75568160     0.04200
C1819       C  0.95476358  0.63484612  0.75690759    -0.11900
C1820       C  0.93752810  0.63138402  0.74337702     0.23500
C1821       C  0.93351027  0.60268095  0.72723311    -0.12400
C1822       C  0.94667955  0.57776398  0.72439656     0.04900
C1823       C  0.92325483  0.65686158  0.74804999     0.27300
C1824       C  0.91561930  0.66090236  0.77627082    -0.13100
C1825       C  0.90361770  0.68689565  0.78198644     0.05400
C1826       C  0.89579978  0.70536082  0.75819642    -0.09100
C1827       C  0.90374666  0.70096451  0.72945087     0.06200
C1828       C  0.91787305  0.67776249  0.72497845    -0.13500
Br1829     Br  0.90951596  0.59653026  0.71063521    -0.05500
Br1830     Br  0.99060681  0.61358150  0.77562785     0.00100
Br1831     Br  0.90108674  0.69876688  0.82343507     0.00500
Br1832     Br  0.93012478  0.67420935  0.68705567    -0.03900
Br1833     Br  0.94131327  0.53955268  0.70073698     0.00600
Br1834     Br  0.96082407  0.67475310  0.77777673    -0.03200
Br1835     Br  0.92155930  0.63022421  0.80746412    -0.04000
Br1836     Br  0.89652080  0.72546100  0.69508872    -0.00100
C1837       C  0.96118148  0.93544960  0.74857069     0.01400
C1838       C  0.94693534  0.93954252  0.76949617     0.04200
C1839       C  0.93403273  0.91453885  0.77396271    -0.11900
C1840       C  0.93509366  0.88537240  0.75745500     0.23500
C1841       C  0.94890778  0.88150693  0.73590228    -0.12400
C1842       C  0.96195928  0.90645105  0.73145238     0.04900
C1843       C  0.92093125  0.85971831  0.76172097     0.27300
C1844       C  0.92273143  0.83601469  0.78401966    -0.13100
C1845       C  0.90866560  0.81302484  0.78907606     0.05400
C1846       C  0.89286602  0.81259159  0.77105412    -0.09100
C1847       C  0.89173670  0.83586716  0.74771956     0.06200
C1848       C  0.90529600  0.85996961  0.74399647    -0.13500
Br1849     Br  0.94993429  0.84178371  0.71275072    -0.05500
Br1850     Br  0.94448899  0.97991093  0.79154534     0.00100
Br1851     Br  0.91205772  0.78104077  0.81961240     0.00500
Br1852     Br  0.90253515  0.89411861  0.71467801    -0.03900
Br1853     Br  0.98135999  0.89986493  0.70301816     0.00600
Br1854     Br  0.91465441  0.92016469  0.80262462    -0.03200
Br1855     Br  0.94474763  0.83506565  0.80731465    -0.04000
Br1856     Br  0.87241202  0.83560030  0.71938254    -0.00100
loop_ 
_geom_bond_atom_site_label_1 
_geom_bond_atom_site_label_2 
_geom_bond_distance 
_geom_bond_site_symmetry_2 
_ccdc_geom_bond_type 
O1           C11   1.280       .  A
O1         Cu937   2.022       .  S
O2           C12   1.281       .  A
O2           Cu9   2.031   1_655  S
O3           C13   1.276       .  A
O3         Cu937   1.997   1_655  S
O4           C14   1.271       .  A
O4           Cu9   1.983       .  S
O5           C14   1.281       .  A
O5         Cu938   2.035       .  S
O6           C13   1.280       .  A
O6          Cu10   2.029   1_655  S
O7           C12   1.275       .  A
O7         Cu938   2.000   1_655  S
O8           C11   1.276       .  A
O8          Cu10   2.001       .  S
Cu9         O929   2.019   1_545  S
Cu9         O931   1.989   1_445  S
Cu9        Cu938   2.365       .  S
Cu10        O933   2.026       .  S
Cu10        O935   2.011   1_455  S
Cu10       Cu937   2.371       .  S
C11         C858   1.483       .  S
C12         C889   1.478       .  S
C13         C909   1.478       .  S
C14         C869   1.506       .  S
C15          C16   1.541       .  S
C15          C21   1.526       .  S
C15          C19   1.556       .  S
C15         C838   1.563       .  S
C16          H23   1.087       .  S
C16          C17   1.368       .  D
C17          C18   1.548       .  S
C17         C878   1.501       .  S
C18          C22   1.550       .  S
C18          C20   1.546       .  S
C18          H24   1.109       .  S
C19          H25   1.078       .  S
C19          C20   1.376       .  D
C20         C849   1.513       .  S
C21          H26   1.087       .  S
C21          C22   1.362       .  D
C22         C818   1.496       .  S
C27          C28   1.526       .  S
C27          C33   1.518       .  S
C27          C31   1.568       .  S
C27         C769   1.552       .  S
C28          H35   1.085       .  S
C28          C29   1.363       .  D
C29          C30   1.559       .  S
C29         C898   1.522       .  S
C30          C34   1.570       .  S
C30          C32   1.534       .  S
C30          H36   1.099       .  S
C31          H37   1.079       .  S
C31          C32   1.380       .  D
C32         C918   1.517       .  S
C33          H38   1.088       .  S
C33          C34   1.354       .  D
C34         C789   1.493       .  S
C39          C40   1.532       .  S
C39         C973   1.532   1_545  S
C39         C971   1.561   1_545  S
C39         C689   1.564       .  S
C40          H47   1.087       .  S
C40          C41   1.363       .  D
C41         C970   1.560   1_545  S
C41         C729   1.510       .  S
C42          C46   1.558       .  S
C42          C44   1.546       .  S
C42         C969   1.559       .  S
C42          H48   1.107       .  S
C43         C967   1.562       .  S
C43          H49   1.079       .  S
C43          C44   1.376       .  D
C44         C758   1.519       .  S
C45         C967   1.530       .  S
C45          H50   1.086       .  S
C45          C46   1.364       .  D
C46         C709   1.501       .  S
O51          C61   1.280       .  A
O51         Cu59   2.024       .  S
O52          C62   1.279       .  A
O52         Cu59   2.024       .  S
O53          C63   1.276       .  A
O53         Cu59   2.013       .  S
O54          C64   1.276       .  A
O54         Cu59   1.997       .  S
O55          C64   1.279       .  A
O55         Cu60   2.018       .  S
O56          C63   1.277       .  A
O56         Cu60   2.015       .  S
O57          C62   1.277       .  A
O57         Cu60   2.007       .  S
O58          C61   1.276       .  A
O58         Cu60   2.002       .  S
Cu59        Cu60   2.364       .  S
C61         C649   1.493       .  S
C62         C738   1.478       .  S
C63         C749   1.514       .  S
C64         C678   1.475       .  S
C65          C66   1.524   1_565  S
C65         C999   1.550       .  S
C65         C997   1.543       .  S
C65         C638   1.559   1_565  S
C66          H73   1.086       .  S
C66          C67   1.359       .  D
C67         C996   1.544   1_545  S
C67         C669   1.496       .  S
C68          C72   1.559       .  S
C68          C70   1.540       .  S
C68         C995   1.545       .  S
C68          H74   1.103       .  S
C69         C993   1.545       .  S
C69          H75   1.081       .  S
C69          C70   1.364       .  D
C70         C658   1.491       .  S
C71         C993   1.549       .  S
C71          H76   1.085       .  S
C71          C72   1.384       .  D
C72         C609   1.526       .  S
N77          C82   1.356       .  A
N77          C81   1.354       .  A
N77         H109   1.040       .  S
N78          C85   1.351   1_556  A
N78          C86   1.353       .  A
N79          C84   1.353       .  A
N79          C83   1.354       .  A
N79         H110   1.040       .  S
N80          C87   1.351   1_556  A
N80          C88   1.350       .  A
C81          C89   1.388       .  A
C81          C97   1.419       .  A
C82          C98   1.421       .  A
C82          C90   1.387       .  A
C83          C91   1.388       .  A
C83         C100   1.419       .  A
C84          C99   1.415       .  A
C84          C92   1.386       .  A
C85          C97   1.415       .  A
C85          C93   1.387   1_554  A
C86         C100   1.417       .  A
C86          C94   1.386       .  A
C87          C95   1.386   1_554  A
C87          C98   1.414       .  A
C88          C96   1.386       .  A
C88          C99   1.411       .  A
C89          C90   1.379       .  A
C89         H101   1.082       .  S
C90         H102   1.082       .  S
C91          C92   1.378       .  A
C91         H103   1.082       .  S
C92         H104   1.082       .  S
C93          C94   1.377       .  A
C93         H105   1.082   1_556  S
C94         H106   1.082       .  S
C95          C96   1.375       .  A
C95         H107   1.082   1_556  S
C96         H108   1.082       .  S
C97         C589   1.493       .  S
C98         C569   1.503       .  S
C99         C809   1.488       .  S
C100        C618   1.505       .  S
O111        C121   1.275       .  A
O111      Cu1047   1.997       .  S
O112        C122   1.277       .  A
O112       Cu119   2.014   1_655  S
O113        C123   1.282       .  A
O113      Cu1047   2.043   1_655  S
O114        C124   1.280       .  A
O114       Cu119   2.029       .  S
O115        C124   1.276       .  A
O115       Cu120   2.006   1_455  S
O116        C123   1.275       .  A
O116      Cu1048   1.997       .  S
O117        C122   1.279       .  A
O117       Cu120   2.016       .  S
O118        C121   1.282       .  A
O118      Cu1048   2.037   1_455  S
Cu119      O1039   2.009   1_545  S
Cu119      O1041   2.024   1_445  S
Cu119      Cu120   2.361   1_455  S
Cu120      O1044   1.996   1_545  S
Cu120      O1046   2.030   1_645  S
C121        C489   1.498       .  S
C122        C529   1.493       .  S
C123        C558   1.493       .  S
C124        C518   1.478       .  S
C125        C126   1.532       .  S
C125        C131   1.541       .  S
C125        C129   1.557       .  S
C125        C578   1.568       .  S
C126        H133   1.087       .  S
C126        C127   1.367       .  D
C127        C128   1.556       .  S
C127        C478   1.508       .  S
C128        C132   1.550       .  S
C128        C130   1.549       .  S
C128        H134   1.108       .  S
C129        H135   1.075       .  S
C129        C130   1.377       .  D
C130        C509   1.521       .  S
C131        H136   1.086       .  S
C131        C132   1.366       .  D
C132        C498   1.502       .  S
C137        C138   1.535       .  S
C137        C143   1.527       .  S
C137        C141   1.557       .  S
C137        C458   1.559       .  S
C138        H145   1.086       .  S
C138        C139   1.367       .  D
C139        C140   1.550       .  S
C139        C429   1.514       .  S
C140        C144   1.547       .  S
C140        C142   1.549       .  S
C140        H146   1.104       .  S
C141        H147   1.080       .  S
C141        C142   1.384       .  D
C142        C549   1.518       .  S
C143        H148   1.088       .  S
C143        C144   1.354       .  D
C144        C538   1.484       .  S
C149        C155   1.528   1_565  S
C149       C1078   1.544       .  S
C149       C1081   1.553       .  S
C149        C378   1.560       .  S
C150       C1077   1.546       .  S
C150        H157   1.079       .  S
C150        C151   1.362       .  D
C151        C152   1.537       .  S
C151        C358   1.503       .  S
C152        C154   1.547       .  S
C152       C1084   1.562       .  S
C152        H158   1.095       .  S
C153       C1077   1.553       .  S
C153        H159   1.081       .  S
C153        C154   1.388       .  D
C154        C409   1.538       .  S
C155        H160   1.087       .  S
C155        C156   1.358       .  D
C156       C1080   1.563   1_545  S
C156        C389   1.493       .  S
C161        C162   1.523       .  S
C161        C167   1.527       .  S
C161       C1093   1.568       .  S
C161        C598   1.558       .  S
C162        H169   1.087       .  S
C162       C1091   1.356       .  D
C163        C164   1.569       .  S
C163       C1090   1.355       .  D
C163        C289   1.493   1_565  S
C164        C166   1.537   1_565  S
C164       C1096   1.559       .  S
C164        H170   1.102       .  S
C165       C1089   1.569   1_545  S
C165        H171   1.080       .  S
C165        C166   1.381       .  D
C166        C338   1.519       .  S
C167        H172   1.086       .  S
C167        C168   1.363       .  D
C168       C1092   1.554       .  S
C168        C309   1.515       .  S
O173        C183   1.272       .  A
O173       Cu181   1.988       .  S
O174        C184   1.275       .  A
O174       Cu181   1.999       .  S
O175        C185   1.283       .  A
O175       Cu181   2.040       .  S
O176        C186   1.284       .  A
O176       Cu181   2.051       .  S
O177        C186   1.271       .  A
O177       Cu182   1.979       .  S
O178        C185   1.274       .  A
O178       Cu182   1.992       .  S
O179        C184   1.280       .  A
O179       Cu182   2.025       .  S
O180        C183   1.282       .  A
O180       Cu182   2.037       .  S
Cu181      Cu182   2.364       .  S
C183        C318   1.474       .  S
C184        C398   1.495       .  S
C185        C418   1.487       .  S
C186        C329   1.504       .  S
N187        C192   1.355       .  A
N187        C191   1.355       .  A
N187        H219   1.038       .  S
N188        C195   1.348   1_554  A
N188        C196   1.349       .  A
N189        C194   1.352       .  A
N189        C193   1.355       .  A
N189        H220   1.039       .  S
N190        C197   1.355   1_554  A
N190        C198   1.354       .  A
C191        C199   1.386       .  A
C191        C207   1.418       .  A
C192        C208   1.420       .  A
C192        C200   1.388       .  A
C193        C201   1.386       .  A
C193        C210   1.417       .  A
C194        C209   1.417       .  A
C194        C202   1.387       .  A
C195        C207   1.408       .  A
C195        C203   1.386   1_556  A
C196        C210   1.409       .  A
C196        C204   1.387       .  A
C197        C205   1.386   1_556  A
C197        C208   1.419       .  A
C198        C206   1.387       .  A
C198        C209   1.420       .  A
C199        C200   1.376       .  A
C199        H211   1.082       .  S
C200        H212   1.082       .  S
C201        C202   1.378       .  A
C201        H213   1.082       .  S
C202        H214   1.082       .  S
C203        C204   1.372       .  A
C203        H215   1.082   1_554  S
C204        H216   1.082       .  S
C205        C206   1.375       .  A
C205        H217   1.082   1_554  S
C206        H218   1.082       .  S
C207        C778   1.487       .  S
C208        C698   1.499       .  S
C209        C369   1.499       .  S
C210        C449   1.490       .  S
N221        C226   1.358       .  A
N221        C225   1.356       .  A
N221        H253   1.036       .  S
N222        C229   1.352       .  A
N222        C230   1.354       .  A
N223        C228   1.354       .  A
N223        C227   1.354       .  A
N223        H254   1.037       .  S
N224        C231   1.353       .  A
N224        C232   1.353       .  A
C225        C233   1.388       .  A
C225        C241   1.424       .  A
C226        C242   1.425       .  A
C226        C234   1.387       .  A
C227        C235   1.387       .  A
C227        C244   1.417       .  A
C228        C243   1.419       .  A
C228        C236   1.387       .  A
C229        C241   1.419       .  A
C229        C237   1.389       .  A
C230        C244   1.415       .  A
C230        C238   1.385       .  A
C231        C239   1.386       .  A
C231        C242   1.417       .  A
C232        C240   1.386       .  A
C232        C243   1.416       .  A
C233        C234   1.378       .  A
C233        H245   1.082       .  S
C234        H246   1.082       .  S
C235        C236   1.377       .  A
C235        H247   1.082       .  S
C236        H248   1.082       .  S
C237        C238   1.370       .  A
C237        H249   1.082       .  S
C238        H250   1.082       .  S
C239        C240   1.373       .  A
C239        H251   1.082       .  S
C240        H252   1.082       .  S
C241        C298   1.495       .  S
C242        C469   1.503       .  S
C243        C829   1.496       .  S
C244        C629   1.493       .  S
N255        C260   1.353       .  A
N255        C259   1.351       .  A
N255        H287   1.040       .  S
N256        C263   1.350       .  A
N256        C264   1.350       .  A
N257        C262   1.355       .  A
N257        C261   1.359       .  A
N257        H288   1.039       .  S
N258        C265   1.356       .  A
N258        C266   1.351       .  A
C259        C267   1.387       .  A
C259        C275   1.414       .  A
C260        C276   1.416       .  A
C260        C268   1.387       .  A
C261        C269   1.386       .  A
C261        C278   1.424       .  A
C262        C277   1.424       .  A
C262        C270   1.388       .  A
C263        C275   1.412       .  A
C263        C271   1.386       .  A
C264        C278   1.414       .  A
C264        C272   1.386       .  A
C265        C273   1.384       .  A
C265        C276   1.418       .  A
C266        C274   1.388       .  A
C266        C277   1.419       .  A
C267        C268   1.379       .  A
C267        H279   1.082       .  S
C268        H280   1.082       .  S
C269        C270   1.378       .  A
C269        H281   1.082       .  S
C270        H282   1.082       .  S
C271        C272   1.375       .  A
C271        H283   1.082       .  S
C272        H284   1.082       .  S
C273        C274   1.373       .  A
C273        H285   1.082       .  S
C274        H286   1.081       .  S
C275        C349   1.488       .  S
C276        C438   1.505       .  S
C277        C798   1.496       .  S
C278        C718   1.507       .  S
C289        C294   1.420       .  A
C289       C1218   1.409   1_545  A
C290       C1217   1.409       .  A
C290       C1219   1.410       .  A
C290       Br302   1.925       .  S
C291        C292   1.411   1_565  A
C291       C1218   1.410       .  A
C291      Br1234   1.929       .  S
C292        C295   1.489       .  S
C292        C293   1.408       .  A
C293        C294   1.406       .  A
C293       Br301   1.933       .  S
C294       Br305   1.937       .  S
C295        C296   1.411       .  A
C295        C300   1.411       .  A
C296        C297   1.409       .  A
C296       Br307   1.929   1_545  S
C297        C298   1.411       .  A
C297       Br303   1.929       .  S
C298        C299   1.412       .  A
C299        C300   1.407       .  A
C299       Br308   1.930       .  S
C300       Br304   1.931       .  S
Br306      C1219   1.929       .  S
C309        C310   1.425       .  A
C309        C314   1.433       .  A
C310        C311   1.414       .  A
C310       Br322   1.923       .  S
C311        C312   1.404       .  A
C311       Br326   1.932       .  S
C312        C315   1.481       .  S
C312        C313   1.399       .  A
C313        C314   1.402       .  A
C313       Br321   1.942       .  S
C314       Br325   1.935       .  S
C315        C316   1.408       .  A
C315        C320   1.410       .  A
C316        C317   1.407       .  A
C316       Br327   1.929       .  S
C317        C318   1.411       .  A
C317       Br323   1.928       .  S
C318        C319   1.408       .  A
C319        C320   1.405       .  A
C319       Br328   1.923       .  S
C320       Br324   1.932       .  S
C329        C330   1.422       .  A
C329        C334   1.429       .  A
C330        C331   1.413       .  A
C330       Br342   1.930       .  S
C331        C332   1.408       .  A
C331       Br346   1.933       .  S
C332        C335   1.492       .  S
C332        C333   1.405       .  A
C333        C334   1.409       .  A
C333       Br341   1.937       .  S
C334       Br345   1.939       .  S
C335        C336   1.405       .  A
C335        C340   1.404       .  A
C336        C337   1.411       .  A
C336       Br347   1.935       .  S
C337        C338   1.421       .  A
C337       Br343   1.913       .  S
C338        C339   1.425       .  A
C339        C340   1.412       .  A
C339       Br348   1.916       .  S
C340       Br344   1.936       .  S
C349        C350   1.409       .  A
C349        C354   1.409       .  A
C350        C351   1.407       .  A
C350       Br362   1.929       .  S
C351        C352   1.410       .  A
C351      Br1294   1.929       .  S
C352        C355   1.488       .  S
C352        C353   1.411       .  A
C353        C354   1.409       .  A
C353       Br361   1.927       .  S
C354       Br365   1.929       .  S
C355        C356   1.408       .  A
C355        C360   1.405       .  A
C356        C357   1.413       .  A
C356       Br367   1.930       .  S
C357        C358   1.414       .  A
C357       Br363   1.918       .  S
C358        C359   1.417       .  A
C359        C360   1.407       .  A
C359       Br368   1.923       .  S
C360       Br364   1.933       .  S
Br366      C1279   1.929       .  S
C369        C370   1.413       .  A
C369        C374   1.412       .  A
C370        C371   1.409       .  A
C370       Br382   1.930       .  S
C371        C372   1.410       .  A
C371       Br386   1.930       .  S
C372        C375   1.493       .  S
C372        C373   1.412       .  A
C373        C374   1.410       .  A
C373       Br381   1.929   1_545  S
C374       Br385   1.930       .  S
C375        C376   1.404       .  A
C375        C380   1.407       .  A
C376       C1305   1.409   1_545  A
C376      Br1315   1.932       .  S
C377       C1304   1.411       .  A
C377       C1306   1.425       .  A
C377       Br383   1.931       .  S
C378        C379   1.427   1_565  A
C378       C1305   1.426       .  A
C379        C380   1.413       .  A
C379       Br388   1.931       .  S
C380       Br384   1.932       .  S
Br387      C1304   1.931       .  S
C389        C390   1.419       .  A
C389        C394   1.413       .  A
C390        C391   1.407       .  A
C390       Br402   1.929       .  S
C391        C392   1.405       .  A
C391       Br406   1.933       .  S
C392        C395   1.487       .  S
C392        C393   1.408       .  A
C393        C394   1.410       .  A
C393       Br401   1.929       .  S
C394       Br405   1.927       .  S
C395        C396   1.408       .  A
C395        C400   1.405       .  A
C396        C397   1.410       .  A
C396       Br407   1.932       .  S
C397        C398   1.419       .  A
C397       Br403   1.933       .  S
C398        C399   1.422       .  A
C399        C400   1.409       .  A
C399       Br408   1.932       .  S
C400       Br404   1.933       .  S
C409        C410   1.444       .  A
C409        C414   1.434       .  A
C410        C411   1.415       .  A
C410       Br422   1.936       .  S
C411        C412   1.399       .  A
C411       Br426   1.940       .  S
C412        C415   1.492       .  S
C412        C413   1.400       .  A
C413        C414   1.412       .  A
C413       Br421   1.933       .  S
C414       Br425   1.933       .  S
C415        C416   1.410       .  A
C415        C420   1.408       .  A
C416        C417   1.411       .  A
C416       Br427   1.929       .  S
C417        C418   1.413       .  A
C417       Br423   1.930       .  S
C418        C419   1.417       .  A
C419        C420   1.409       .  A
C419       Br428   1.933       .  S
C420       Br424   1.931       .  S
C429        C430   1.421       .  A
C429        C434   1.421       .  A
C430        C431   1.411       .  A
C430       Br442   1.924       .  S
C431        C432   1.409       .  A
C431       Br446   1.934       .  S
C432        C435   1.499       .  S
C432        C433   1.409       .  A
C433        C434   1.413       .  A
C433       Br441   1.934       .  S
C434       Br445   1.923       .  S
C435        C436   1.412       .  A
C435        C440   1.412       .  A
C436        C437   1.408       .  A
C436       Br447   1.932       .  S
C437        C438   1.415       .  A
C437       Br443   1.933       .  S
C438        C439   1.415       .  A
C439        C440   1.412       .  A
C439       Br448   1.929       .  S
C440       Br444   1.930       .  S
C449        C450   1.412       .  A
C449        C454   1.409       .  A
C450        C451   1.408       .  A
C450       Br462   1.930       .  S
C451        C452   1.410       .  A
C451       Br466   1.929       .  S
C452        C455   1.486       .  S
C452        C453   1.410       .  A
C453        C454   1.407       .  A
C453       Br461   1.929       .  S
C454       Br465   1.930       .  S
C455        C456   1.399       .  A
C455        C460   1.404       .  A
C456        C457   1.406       .  A
C456       Br467   1.941       .  S
C457        C458   1.437       .  A
C457       Br463   1.937       .  S
C458        C459   1.428       .  A
C459        C460   1.415       .  A
C459       Br468   1.925       .  S
C460       Br464   1.932       .  S
C469        C470   1.411       .  A
C469        C474   1.414       .  A
C470        C471   1.412       .  A
C470       Br482   1.929       .  S
C471        C472   1.412       .  A
C471       Br486   1.929       .  S
C472        C475   1.498       .  S
C472        C473   1.411       .  A
C473        C474   1.412       .  A
C473       Br481   1.929       .  S
C474       Br485   1.930       .  S
C475        C476   1.411       .  A
C475        C480   1.407       .  A
C476        C477   1.418       .  A
C476       Br487   1.929       .  S
C477        C478   1.417       .  A
C477       Br483   1.924       .  S
C478        C479   1.422       .  A
C479        C480   1.409       .  A
C479       Br488   1.934       .  S
C480       Br484   1.934       .  S
C489        C490   1.423       .  A
C489        C494   1.419       .  A
C490        C491   1.410       .  A
C490       Br502   1.935       .  S
C491        C492   1.406       .  A
C491       Br506   1.932       .  S
C492        C495   1.492       .  S
C492        C493   1.409       .  A
C493        C494   1.412       .  A
C493       Br501   1.931       .  S
C494       Br505   1.932       .  S
C495        C496   1.407       .  A
C495        C500   1.407       .  A
C496        C497   1.410       .  A
C496       Br507   1.930       .  S
C497        C498   1.415       .  A
C497       Br503   1.922       .  S
C498        C499   1.415       .  A
C499        C500   1.411       .  A
C499       Br508   1.914       .  S
C500       Br504   1.932       .  S
C509        C510   1.423       .  A
C509        C514   1.430       .  A
C510        C511   1.408       .  A
C510       Br522   1.920       .  S
C511        C512   1.403       .  A
C511       Br526   1.935       .  S
C512        C515   1.494       .  S
C512        C513   1.407       .  A
C513        C514   1.417       .  A
C513       Br521   1.932       .  S
C514       Br525   1.935       .  S
C515        C516   1.413       .  A
C515        C520   1.412       .  A
C516        C517   1.410       .  A
C516       Br527   1.929       .  S
C517        C518   1.408       .  A
C517       Br523   1.930       .  S
C518        C519   1.409       .  A
C519        C520   1.410       .  A
C519       Br528   1.928       .  S
C520       Br524   1.929       .  S
C529        C530   1.420       .  A
C529        C534   1.419       .  A
C530        C531   1.411       .  A
C530       Br542   1.932       .  S
C531        C532   1.406       .  A
C531       Br546   1.931       .  S
C532        C535   1.486       .  S
C532        C533   1.407       .  A
C533        C534   1.408       .  A
C533       Br541   1.934       .  S
C534       Br545   1.934       .  S
C535        C536   1.411       .  A
C535        C540   1.407       .  A
C536        C537   1.410       .  A
C536       Br547   1.927       .  S
C537        C538   1.407       .  A
C537       Br543   1.927       .  S
C538        C539   1.417       .  A
C539        C540   1.403       .  A
C539       Br548   1.935       .  S
C540       Br544   1.933       .  S
C549        C550   1.429       .  A
C549        C554   1.422       .  A
C550        C551   1.412       .  A
C550       Br562   1.925       .  S
C551        C552   1.404       .  A
C551       Br566   1.938       .  S
C552        C555   1.492       .  S
C552        C553   1.405       .  A
C553        C554   1.411       .  A
C553       Br561   1.929       .  S
C554       Br565   1.930       .  S
C555        C556   1.410       .  A
C555        C560   1.407       .  A
C556        C557   1.414       .  A
C556       Br567   1.930       .  S
C557        C558   1.417       .  A
C557       Br563   1.930       .  S
C558        C559   1.417       .  A
C559        C560   1.407       .  A
C559       Br568   1.934       .  S
C560       Br564   1.932       .  S
C569        C570   1.412       .  A
C569        C574   1.416       .  A
C570        C571   1.409       .  A
C570       Br582   1.931       .  S
C571        C572   1.411       .  A
C571       Br586   1.930       .  S
C572        C575   1.498       .  S
C572        C573   1.411       .  A
C573        C574   1.414       .  A
C573       Br581   1.928       .  S
C574       Br585   1.931       .  S
C575        C576   1.406       .  A
C575        C580   1.404       .  A
C576        C577   1.415       .  A
C576       Br587   1.932       .  S
C577        C578   1.429       .  A
C577       Br583   1.931       .  S
C578        C579   1.432       .  A
C579        C580   1.414       .  A
C579       Br588   1.926       .  S
C580       Br584   1.936       .  S
C589        C590   1.410       .  A
C589        C594   1.411       .  A
C590        C591   1.409       .  A
C590       Br602   1.929       .  S
C591        C592   1.412       .  A
C591       Br606   1.930       .  S
C592        C595   1.492       .  S
C592        C593   1.410       .  A
C593        C594   1.409       .  A
C593      Br1529   1.929       .  S
C594       Br605   1.929       .  S
C595        C596   1.403       .  A
C595        C600   1.405       .  A
C596        C597   1.406       .  A
C596       Br607   1.936       .  S
C597        C598   1.432       .  A
C597       Br603   1.942       .  S
C598        C599   1.430       .  A
C599        C600   1.416       .  A
C599       Br608   1.925       .  S
C600       Br604   1.934       .  S
Br601      C1521   1.928       .  S
C609        C610   1.430       .  A
C609        C614   1.421       .  A
C610        C611   1.417       .  A
C610       Br622   1.923       .  S
C611        C612   1.407       .  A
C611       Br626   1.936       .  S
C612        C615   1.497       .  S
C612        C613   1.405       .  A
C613        C614   1.408       .  A
C613       Br621   1.934       .  S
C614       Br625   1.919       .  S
C615        C616   1.411       .  A
C615        C620   1.411       .  A
C616        C617   1.410       .  A
C616       Br627   1.931       .  S
C617        C618   1.415       .  A
C617       Br623   1.932       .  S
C618        C619   1.416       .  A
C619        C620   1.411       .  A
C619       Br628   1.931       .  S
C620      Br1552   1.931       .  S
Br624      C1548   1.931   1_545  S
C629        C630   1.409       .  A
C629        C634   1.411       .  A
C630        C631   1.406       .  A
C630       Br642   1.931       .  S
C631        C632   1.412       .  A
C631       Br646   1.931       .  S
C632        C635   1.490       .  S
C632        C633   1.409       .  A
C633        C634   1.411       .  A
C633      Br1569   1.927   1_545  S
C634       Br645   1.926   1_545  S
C635        C636   1.402       .  A
C635        C640   1.400       .  A
C636        C637   1.415   1_545  A
C636       Br647   1.935   1_545  S
C637        C638   1.439   1_565  A
C637       Br643   1.939       .  S
C638        C639   1.428       .  A
C639        C640   1.408       .  A
C639       Br648   1.922       .  S
C640       Br644   1.936       .  S
Br641      C1561   1.927       .  S
C649        C650   1.421       .  A
C649        C654   1.416       .  A
C650        C651   1.410       .  A
C650       Br662   1.934       .  S
C651        C652   1.407       .  A
C651       Br666   1.931       .  S
C652        C655   1.489       .  S
C652        C653   1.410       .  A
C653        C654   1.408       .  A
C653       Br661   1.933       .  S
C654       Br665   1.933       .  S
C655        C656   1.408       .  A
C655        C660   1.410       .  A
C656        C657   1.405       .  A
C656       Br667   1.933       .  S
C657        C658   1.411       .  A
C657       Br663   1.921       .  S
C658        C659   1.416       .  A
C659        C660   1.411       .  A
C659       Br668   1.933       .  S
C660       Br664   1.929       .  S
C669        C670   1.416       .  A
C669        C674   1.421       .  A
C670        C671   1.410       .  A
C670       Br682   1.929       .  S
C671        C672   1.409       .  A
C671       Br686   1.932       .  S
C672        C675   1.485       .  S
C672        C673   1.405       .  A
C673        C674   1.403       .  A
C673       Br681   1.934       .  S
C674       Br685   1.935       .  S
C675        C676   1.409       .  A
C675        C680   1.411       .  A
C676        C677   1.407       .  A
C676       Br687   1.931       .  S
C677        C678   1.413       .  A
C677       Br683   1.932       .  S
C678        C679   1.409       .  A
C679        C680   1.406       .  A
C679       Br688   1.928       .  S
C680       Br684   1.933       .  S
C689        C690   1.431       .  A
C689       C1622   1.426   1_545  A
C690        C691   1.413       .  A
C690       Br702   1.935       .  S
C691        C692   1.406       .  A
C691       Br706   1.934       .  S
C692        C695   1.497       .  S
C692        C693   1.406       .  A
C693       C1622   1.413   1_545  A
C693      Br1629   1.933   1_545  S
C694       C1617   1.424       .  A
C694       C1621   1.412       .  A
C694       Br705   1.923       .  S
C695        C696   1.413       .  A
C695        C700   1.412       .  A
C696        C697   1.411       .  A
C696       Br707   1.929       .  S
C697        C698   1.411       .  A
C697       Br703   1.929       .  S
C698        C699   1.411       .  A
C699        C700   1.411       .  A
C699       Br708   1.929       .  S
C700       Br704   1.929       .  S
Br701      C1621   1.932       .  S
C709        C710   1.415       .  A
C709        C714   1.411       .  A
C710        C711   1.415       .  A
C710      Br1650   1.925       .  S
C711        C712   1.412       .  A
C711      Br1654   1.929       .  S
C712        C715   1.500       .  S
C712        C713   1.410       .  A
C713        C714   1.410       .  A
C713       Br721   1.933       .  S
C714       Br725   1.914       .  S
C715        C716   1.411       .  A
C715        C720   1.414       .  A
C716        C717   1.411       .  A
C716       Br727   1.930       .  S
C717        C718   1.417       .  A
C717       Br723   1.932       .  S
C718        C719   1.414       .  A
C719        C720   1.412       .  A
C719       Br728   1.930       .  S
C720       Br724   1.930       .  S
Br722      C1638   1.924       .  S
Br726      C1639   1.929   1_545  S
C729        C730   1.428       .  A
C729        C734   1.417       .  A
C730        C731   1.406       .  A
C730       Br742   1.939       .  S
C731        C732   1.403       .  A
C731       Br746   1.934       .  S
C732        C735   1.490       .  S
C732        C733   1.410       .  A
C733        C734   1.415       .  A
C733       Br741   1.930       .  S
C734       Br745   1.924       .  S
C735        C736   1.411       .  A
C735        C740   1.410       .  A
C736        C737   1.408       .  A
C736       Br747   1.930       .  S
C737        C738   1.409       .  A
C737       Br743   1.927       .  S
C738        C739   1.410       .  A
C739        C740   1.410       .  A
C739       Br748   1.930       .  S
C740       Br744   1.928       .  S
C749        C750   1.431       .  A
C749        C754   1.432       .  A
C750        C751   1.412       .  A
C750       Br762   1.937       .  S
C751        C752   1.403       .  A
C751       Br766   1.935       .  S
C752        C755   1.491       .  S
C752        C753   1.404       .  A
C753        C754   1.412       .  A
C753       Br761   1.935       .  S
C754       Br765   1.938       .  S
C755        C756   1.405       .  A
C755        C760   1.402       .  A
C756        C757   1.414       .  A
C756       Br767   1.932       .  S
C757        C758   1.425       .  A
C757       Br763   1.926       .  S
C758        C759   1.422       .  A
C759        C760   1.410       .  A
C759       Br768   1.914       .  S
C760       Br764   1.935       .  S
C769        C770   1.435       .  A
C769        C774   1.427       .  A
C770        C771   1.407       .  A
C770       Br782   1.943       .  S
C771        C772   1.401       .  A
C771       Br786   1.937       .  S
C772        C775   1.482       .  S
C772        C773   1.402       .  A
C773        C774   1.410       .  A
C773       Br781   1.933       .  S
C774       Br785   1.926       .  S
C775        C776   1.409       .  A
C775        C780   1.409       .  A
C776        C777   1.407       .  A
C776       Br787   1.928       .  S
C777        C778   1.408       .  A
C777       Br783   1.927       .  S
C778        C779   1.411       .  A
C779        C780   1.404       .  A
C779       Br788   1.931       .  S
C780       Br784   1.931       .  S
C789        C790   1.421       .  A
C789        C794   1.408       .  A
C790        C791   1.407       .  A
C790       Br802   1.937       .  S
C791        C792   1.409       .  A
C791       Br806   1.934       .  S
C792        C795   1.491       .  S
C792        C793   1.412       .  A
C793        C794   1.410       .  A
C793       Br801   1.929       .  S
C794       Br805   1.923       .  S
C795        C796   1.412       .  A
C795        C800   1.411       .  A
C796        C797   1.408       .  A
C796       Br807   1.930       .  S
C797        C798   1.412       .  A
C797       Br803   1.930       .  S
C798        C799   1.412       .  A
C799        C800   1.408       .  A
C799       Br808   1.930       .  S
C800       Br804   1.930       .  S
C809        C810   1.409       .  A
C809        C814   1.410       .  A
C810        C811   1.407       .  A
C810       Br822   1.929       .  S
C811        C812   1.410       .  A
C811       Br826   1.929       .  S
C812        C815   1.484       .  S
C812        C813   1.409       .  A
C813        C814   1.407       .  A
C813       Br821   1.929       .  S
C814       Br825   1.929       .  S
C815        C816   1.405       .  A
C815        C820   1.408       .  A
C816        C817   1.406       .  A
C816       Br827   1.932       .  S
C817        C818   1.420       .  A
C817       Br823   1.936       .  S
C818        C819   1.414       .  A
C819        C820   1.411       .  A
C819       Br828   1.924       .  S
C820       Br824   1.930       .  S
C829        C830   1.411       .  A
C829        C834   1.410       .  A
C830        C831   1.410       .  A
C830       Br842   1.929       .  S
C831        C832   1.411       .  A
C831       Br846   1.928       .  S
C832        C835   1.495       .  S
C832        C833   1.412       .  A
C833        C834   1.410       .  A
C833       Br841   1.929       .  S
C834       Br845   1.929       .  S
C835        C836   1.408       .  A
C835        C840   1.401       .  A
C836        C837   1.418       .  A
C836       Br847   1.932       .  S
C837        C838   1.429       .  A
C837       Br843   1.931       .  S
C838        C839   1.430       .  A
C839        C840   1.408       .  A
C839       Br848   1.926       .  S
C840       Br844   1.936       .  S
C849        C850   1.424       .  A
C849        C854   1.422       .  A
C850        C851   1.414       .  A
C850       Br862   1.934       .  S
C851        C852   1.407       .  A
C851       Br866   1.931       .  S
C852        C855   1.492       .  S
C852        C853   1.405       .  A
C853        C854   1.411       .  A
C853       Br861   1.935       .  S
C854       Br865   1.923       .  S
C855        C856   1.409       .  A
C855        C860   1.411       .  A
C856        C857   1.408       .  A
C856       Br867   1.931       .  S
C857        C858   1.414       .  A
C857       Br863   1.933       .  S
C858        C859   1.413       .  A
C859        C860   1.411       .  A
C859       Br868   1.931       .  S
C860       Br864   1.929       .  S
C869        C870   1.433       .  A
C869        C874   1.426       .  A
C870        C871   1.408       .  A
C870       Br882   1.939       .  S
C871        C872   1.400       .  A
C871       Br886   1.936       .  S
C872        C875   1.483       .  S
C872        C873   1.404       .  A
C873        C874   1.411       .  A
C873       Br881   1.933       .  S
C874       Br885   1.935       .  S
C875        C876   1.406       .  A
C875        C880   1.404       .  A
C876        C877   1.408       .  A
C876       Br887   1.933       .  S
C877        C878   1.415       .  A
C877       Br883   1.916       .  S
C878        C879   1.416       .  A
C879        C880   1.407       .  A
C879       Br888   1.920       .  S
C880       Br884   1.930       .  S
C889        C890   1.410       .  A
C889        C894   1.410       .  A
C890        C891   1.409       .  A
C890       Br902   1.929       .  S
C891        C892   1.412       .  A
C891       Br906   1.931       .  S
C892        C895   1.490       .  S
C892        C893   1.411       .  A
C893        C894   1.408       .  A
C893       Br901   1.931       .  S
C894       Br905   1.929       .  S
C895        C896   1.401       .  A
C895        C900   1.407       .  A
C896        C897   1.406       .  A
C896       Br907   1.938       .  S
C897        C898   1.434       .  A
C897       Br903   1.938       .  S
C898        C899   1.425       .  A
C899        C900   1.415       .  A
C899       Br908   1.922       .  S
C900       Br904   1.934       .  S
C909        C910   1.411       .  A
C909        C914   1.411       .  A
C910        C911   1.407       .  A
C910       Br922   1.930       .  S
C911        C912   1.408       .  A
C911       Br926   1.930       .  S
C912        C915   1.487       .  S
C912        C913   1.411       .  A
C913        C914   1.410       .  A
C913       Br921   1.929       .  S
C914       Br925   1.930       .  S
C915        C916   1.404       .  A
C915        C920   1.400       .  A
C916        C917   1.412       .  A
C916       Br927   1.933       .  S
C917        C918   1.423       .  A
C917       Br923   1.920       .  S
C918        C919   1.428       .  A
C919        C920   1.410       .  A
C919       Br928   1.919       .  S
C920       Br924   1.937       .  S
O929        C939   1.279       .  A
O930        C940   1.278       .  A
O930       Cu937   2.010   1_655  S
O931        C941   1.275       .  A
O932        C942   1.275       .  A
O932       Cu937   1.992       .  S
O933        C942   1.280       .  A
O934        C941   1.281       .  A
O934       Cu938   2.033   1_665  S
O935        C940   1.277       .  A
O936        C939   1.277       .  A
O936       Cu938   2.008   1_565  S
C939       C1786   1.485       .  S
C940       C1817   1.480       .  S
C941       C1837   1.483       .  S
C942       C1797   1.489       .  S
C943        C944   1.539       .  S
C943        C949   1.524       .  S
C943        C947   1.553       .  S
C943       C1766   1.558       .  S
C944        H951   1.086       .  S
C944        C945   1.371       .  D
C945        C946   1.553       .  S
C945       C1806   1.512       .  S
C946        C950   1.549       .  S
C946        C948   1.543       .  S
C946        H952   1.107       .  S
C947        H953   1.077       .  S
C947        C948   1.375       .  D
C948       C1777   1.506       .  S
C949        H954   1.087       .  S
C949        C950   1.359       .  D
C950       C1746   1.492       .  S
C955        C956   1.527       .  S
C955        C961   1.518       .  S
C955        C959   1.568       .  S
C955       C1697   1.555       .  S
C956        H963   1.084       .  S
C956        C957   1.367       .  D
C957        C958   1.561       .  S
C957       C1826   1.529       .  S
C958        C962   1.564       .  S
C958        C960   1.529       .  S
C958        H964   1.096       .  S
C959        H965   1.081       .  S
C959        C960   1.378       .  D
C960       C1846   1.512       .  S
C961        H966   1.087       .  S
C961        C962   1.355       .  D
C962       C1717   1.486       .  S
C967        C968   1.533       .  S
C967       C1617   1.562       .  S
C968        H975   1.087       .  S
C968        C969   1.363       .  D
C969       C1657   1.510       .  S
C970        C974   1.557       .  S
C970        C972   1.546       .  S
C970        H976   1.108       .  S
C971        H977   1.078       .  S
C971        C972   1.376       .  D
C972       C1686   1.517       .  S
C973        H978   1.086       .  S
C973        C974   1.366       .  D
C974       C1637   1.502       .  S
O979        C989   1.279       .  A
O979       Cu987   2.021       .  S
O980        C990   1.278       .  A
O980       Cu987   2.018       .  S
O981        C991   1.278       .  A
O981       Cu987   2.019       .  S
O982        C992   1.277       .  A
O982       Cu987   2.006       .  S
O983        C992   1.278       .  A
O983       Cu988   2.014       .  S
O984        C991   1.276       .  A
O984       Cu988   2.011       .  S
O985        C990   1.278       .  A
O985       Cu988   2.010       .  S
O986        C989   1.277       .  A
O986       Cu988   2.007       .  S
Cu987      Cu988   2.364       .  S
C989       C1577   1.494       .  S
C990       C1666   1.478       .  S
C991       C1677   1.513       .  S
C992       C1606   1.475       .  S
C993        C994   1.526       .  S
C993       C1566   1.561       .  S
C994       H1001   1.086       .  S
C994        C995   1.357       .  D
C995       C1597   1.500       .  S
C996       C1000   1.552       .  S
C996        C998   1.540       .  S
C996       H1002   1.105       .  S
C997       H1003   1.084       .  S
C997        C998   1.363       .  D
C998       C1586   1.491       .  S
C999       H1004   1.085       .  S
C999       C1000   1.383       .  D
C1000      C1537   1.514       .  S
N1005      C1010   1.357       .  A
N1005      C1009   1.355       .  A
N1005      H1037   1.040       .  S
N1006      C1013   1.351   1_556  A
N1006      C1014   1.353       .  A
N1007      C1012   1.353       .  A
N1007      C1011   1.353       .  A
N1007      H1038   1.041       .  S
N1008      C1015   1.350       .  A
N1008      C1016   1.350       .  A
C1009      C1017   1.387       .  A
C1009      C1025   1.420       .  A
C1010      C1026   1.422       .  A
C1010      C1018   1.387       .  A
C1011      C1019   1.388       .  A
C1011      C1028   1.417       .  A
C1012      C1027   1.414       .  A
C1012      C1020   1.386       .  A
C1013      C1025   1.415       .  A
C1013      C1021   1.387   1_554  A
C1014      C1028   1.416       .  A
C1014      C1022   1.386       .  A
C1015      C1023   1.386       .  A
C1015      C1026   1.413   1_556  A
C1016      C1024   1.386       .  A
C1016      C1027   1.412       .  A
C1017      C1018   1.378       .  A
C1017      H1029   1.082       .  S
C1018      H1030   1.082       .  S
C1019      C1020   1.378       .  A
C1019      H1031   1.082       .  S
C1020      H1032   1.082       .  S
C1021      C1022   1.376       .  A
C1021      H1033   1.082   1_556  S
C1022      H1034   1.082       .  S
C1023      C1024   1.376       .  A
C1023      H1035   1.082   1_556  S
C1024      H1036   1.082       .  S
C1025      C1517   1.495       .  S
C1026      C1497   1.501       .  S
C1027      C1737   1.490       .  S
C1028      C1546   1.500       .  S
O1039      C1049   1.277       .  A
O1040      C1050   1.274       .  A
O1040     Cu1047   1.993   1_655  S
O1041      C1051   1.280       .  A
O1042      C1052   1.282       .  A
O1042     Cu1047   2.040       .  S
O1043      C1052   1.276       .  A
O1043     Cu1048   2.010   1_455  S
O1044      C1051   1.275       .  A
O1045      C1050   1.281       .  A
O1045     Cu1048   2.021       .  S
O1046      C1049   1.280       .  A
Cu1047    Cu1048   2.365   1_455  S
C1049      C1417   1.501       .  S
C1050      C1457   1.482       .  S
C1051      C1486   1.490       .  S
C1052      C1446   1.484       .  S
C1053      C1054   1.529       .  S
C1053      C1059   1.544       .  S
C1053      C1057   1.554       .  S
C1053      C1506   1.567       .  S
C1054      H1061   1.087       .  S
C1054      C1055   1.364       .  D
C1055      C1056   1.557       .  S
C1055      C1406   1.507       .  S
C1056      C1060   1.552       .  S
C1056      C1058   1.548       .  S
C1056      H1062   1.108       .  S
C1057      H1063   1.074       .  S
C1057      C1058   1.374       .  D
C1058      C1437   1.520       .  S
C1059      H1064   1.086       .  S
C1059      C1060   1.370       .  D
C1060      C1426   1.507       .  S
C1065      C1066   1.536       .  S
C1065      C1071   1.531       .  S
C1065      C1069   1.554       .  S
C1065      C1386   1.560       .  S
C1066      H1073   1.086       .  S
C1066      C1067   1.368       .  D
C1067      C1068   1.549       .  S
C1067      C1357   1.513       .  S
C1068      C1072   1.548       .  S
C1068      C1070   1.548       .  S
C1068      H1074   1.106       .  S
C1069      H1075   1.081       .  S
C1069      C1070   1.379       .  D
C1070      C1477   1.510       .  S
C1071      H1076   1.087       .  S
C1071      C1072   1.357       .  D
C1072      C1466   1.486       .  S
C1077      C1083   1.529       .  S
C1077      C1306   1.562       .  S
C1078      H1085   1.078       .  S
C1078      C1079   1.361       .  D
C1079      C1080   1.537       .  S
C1079      C1286   1.502       .  S
C1080      C1082   1.547       .  S
C1080      H1086   1.095       .  S
C1081      H1087   1.081       .  S
C1081      C1082   1.387       .  D
C1082      C1337   1.536       .  S
C1083      H1088   1.086       .  S
C1083      C1084   1.357       .  D
C1084      C1317   1.493       .  S
C1089      C1090   1.520       .  S
C1089      C1095   1.525       .  S
C1089      C1526   1.557       .  S
C1090      H1097   1.087       .  S
C1091      C1092   1.566       .  S
C1091      C1217   1.490       .  S
C1092      C1094   1.537       .  S
C1092      H1098   1.101       .  S
C1093      H1099   1.080       .  S
C1093      C1094   1.382       .  D
C1094      C1266   1.519       .  S
C1095      H1100   1.086       .  S
C1095      C1096   1.362       .  D
C1096      C1237   1.519       .  S
O1101      C1111   1.273       .  A
O1101     Cu1109   1.990       .  S
O1102      C1112   1.275       .  A
O1102     Cu1109   2.004       .  S
O1103      C1113   1.282       .  A
O1103     Cu1109   2.034       .  S
O1104      C1114   1.283       .  A
O1104     Cu1109   2.047       .  S
O1105      C1114   1.272       .  A
O1105     Cu1110   1.985       .  S
O1106      C1113   1.275       .  A
O1106     Cu1110   1.997       .  S
O1107      C1112   1.280       .  A
O1107     Cu1110   2.027       .  S
O1108      C1111   1.282       .  A
O1108     Cu1110   2.039       .  S
Cu1109    Cu1110   2.363       .  S
C1111      C1246   1.475       .  S
C1112      C1326   1.503       .  S
C1113      C1346   1.489       .  S
C1114      C1257   1.503       .  S
N1115      C1120   1.356       .  A
N1115      C1119   1.358       .  A
N1115      H1147   1.023       .  S
N1116      C1123   1.350   1_554  A
N1116      C1124   1.350       .  A
N1117      C1122   1.356       .  A
N1117      C1121   1.357       .  A
N1117      H1148   1.027       .  S
N1118      C1125   1.356   1_554  A
N1118      C1126   1.356       .  A
C1119      C1127   1.386       .  A
C1119      C1135   1.420       .  A
C1120      C1136   1.423       .  A
C1120      C1128   1.388       .  A
C1121      C1129   1.387       .  A
C1121      C1138   1.421       .  A
C1122      C1137   1.421       .  A
C1122      C1130   1.387       .  A
C1123      C1135   1.411       .  A
C1123      C1131   1.386   1_556  A
C1124      C1138   1.413       .  A
C1124      C1132   1.387       .  A
C1125      C1133   1.386   1_556  A
C1125      C1136   1.422       .  A
C1126      C1134   1.387       .  A
C1126      C1137   1.423       .  A
C1127      C1128   1.374       .  A
C1127      H1139   1.082       .  S
C1128      H1140   1.082       .  S
C1129      C1130   1.378       .  A
C1129      H1141   1.083       .  S
C1130      H1142   1.082       .  S
C1131      C1132   1.372       .  A
C1131      H1143   1.082   1_554  S
C1132      H1144   1.082       .  S
C1133      C1134   1.374       .  A
C1133      H1145   1.082   1_554  S
C1134      H1146   1.082       .  S
C1135      C1706   1.493       .  S
C1136      C1626   1.502       .  S
C1137      C1297   1.506       .  S
C1138      C1377   1.495       .  S
N1149      C1154   1.359       .  A
N1149      C1153   1.355       .  A
N1149      H1181   1.036       .  S
N1150      C1157   1.353       .  A
N1150      C1158   1.355       .  A
N1151      C1156   1.353       .  A
N1151      C1155   1.355       .  A
N1151      H1182   1.038       .  S
N1152      C1159   1.353       .  A
N1152      C1160   1.352       .  A
C1153      C1161   1.389       .  A
C1153      C1169   1.429       .  A
C1154      C1170   1.428       .  A
C1154      C1162   1.387       .  A
C1155      C1163   1.387       .  A
C1155      C1172   1.419       .  A
C1156      C1171   1.421       .  A
C1156      C1164   1.388       .  A
C1157      C1169   1.424       .  A
C1157      C1165   1.390       .  A
C1158      C1172   1.417       .  A
C1158      C1166   1.384       .  A
C1159      C1167   1.386       .  A
C1159      C1170   1.419       .  A
C1160      C1168   1.386       .  A
C1160      C1171   1.417       .  A
C1161      C1162   1.379       .  A
C1161      H1173   1.082       .  S
C1162      H1174   1.082       .  S
C1163      C1164   1.375       .  A
C1163      H1175   1.082       .  S
C1164      H1176   1.082       .  S
C1165      C1166   1.370       .  A
C1165      H1177   1.082       .  S
C1166      H1178   1.082       .  S
C1167      C1168   1.373       .  A
C1167      H1179   1.082       .  S
C1168      H1180   1.082       .  S
C1169      C1226   1.497       .  S
C1170      C1397   1.505       .  S
C1171      C1757   1.492       .  S
C1172      C1557   1.497       .  S
N1183      C1188   1.354       .  A
N1183      C1187   1.351       .  A
N1183      H1215   1.040       .  S
N1184      C1191   1.349       .  A
N1184      C1192   1.351       .  A
N1185      C1190   1.353       .  A
N1185      C1189   1.358       .  A
N1185      H1216   1.040       .  S
N1186      C1193   1.354       .  A
N1186      C1194   1.350       .  A
C1187      C1195   1.387       .  A
C1187      C1203   1.415       .  A
C1188      C1204   1.417       .  A
C1188      C1196   1.387       .  A
C1189      C1197   1.386       .  A
C1189      C1206   1.422       .  A
C1190      C1205   1.422       .  A
C1190      C1198   1.389       .  A
C1191      C1203   1.412       .  A
C1191      C1199   1.387       .  A
C1192      C1206   1.414       .  A
C1192      C1200   1.386       .  A
C1193      C1201   1.384       .  A
C1193      C1204   1.415       .  A
C1194      C1202   1.389       .  A
C1194      C1205   1.416       .  A
C1195      C1196   1.380       .  A
C1195      H1207   1.082       .  S
C1196      H1208   1.082       .  S
C1197      C1198   1.377       .  A
C1197      H1209   1.082       .  S
C1198      H1210   1.081       .  S
C1199      C1200   1.375       .  A
C1199      H1211   1.082       .  S
C1200      H1212   1.082       .  S
C1201      C1202   1.370       .  A
C1201      H1213   1.082       .  S
C1202      H1214   1.081       .  S
C1203      C1277   1.485       .  S
C1204      C1366   1.505       .  S
C1205      C1726   1.488       .  S
C1206      C1646   1.509       .  S
C1217      C1222   1.417       .  A
C1218     Br1230   1.924       .  S
C1219      C1220   1.411       .  A
C1220      C1223   1.490       .  S
C1220      C1221   1.409       .  A
C1221      C1222   1.406       .  A
C1221     Br1229   1.932       .  S
C1222     Br1233   1.937       .  S
C1223      C1224   1.412       .  A
C1223      C1228   1.410       .  A
C1224      C1225   1.409       .  A
C1224     Br1235   1.930       .  S
C1225      C1226   1.411       .  A
C1225     Br1231   1.929       .  S
C1226      C1227   1.413       .  A
C1227      C1228   1.408       .  A
C1227     Br1236   1.930       .  S
C1228     Br1232   1.931       .  S
C1237      C1238   1.425       .  A
C1237      C1242   1.435       .  A
C1238      C1239   1.415       .  A
C1238     Br1250   1.922       .  S
C1239      C1240   1.404       .  A
C1239     Br1254   1.931       .  S
C1240      C1243   1.482       .  S
C1240      C1241   1.398       .  A
C1241      C1242   1.403       .  A
C1241     Br1249   1.942       .  S
C1242     Br1253   1.936       .  S
C1243      C1244   1.408       .  A
C1243      C1248   1.410       .  A
C1244      C1245   1.407       .  A
C1244     Br1255   1.930       .  S
C1245      C1246   1.411       .  A
C1245     Br1251   1.927       .  S
C1246      C1247   1.408       .  A
C1247      C1248   1.406       .  A
C1247     Br1256   1.924       .  S
C1248     Br1252   1.931       .  S
C1257      C1258   1.421       .  A
C1257      C1262   1.428       .  A
C1258      C1259   1.412       .  A
C1258     Br1270   1.931       .  S
C1259      C1260   1.408       .  A
C1259     Br1274   1.933       .  S
C1260      C1263   1.491       .  S
C1260      C1261   1.405       .  A
C1261      C1262   1.409       .  A
C1261     Br1269   1.936       .  S
C1262     Br1273   1.938       .  S
C1263      C1264   1.404       .  A
C1263      C1268   1.403       .  A
C1264      C1265   1.410       .  A
C1264     Br1275   1.935       .  S
C1265      C1266   1.422       .  A
C1265     Br1271   1.913       .  S
C1266      C1267   1.427       .  A
C1267      C1268   1.411       .  A
C1267     Br1276   1.918       .  S
C1268     Br1272   1.936       .  S
C1277      C1278   1.408       .  A
C1277      C1282   1.409       .  A
C1278      C1279   1.405       .  A
C1278     Br1290   1.930       .  S
C1279      C1280   1.409       .  A
C1280      C1283   1.485       .  S
C1280      C1281   1.410       .  A
C1281      C1282   1.408       .  A
C1281     Br1289   1.928       .  S
C1282     Br1293   1.929       .  S
C1283      C1284   1.407       .  A
C1283      C1288   1.404       .  A
C1284      C1285   1.412       .  A
C1284     Br1295   1.930       .  S
C1285      C1286   1.415       .  A
C1285     Br1291   1.918   1_565  S
C1286      C1287   1.418       .  A
C1287      C1288   1.406       .  A
C1287     Br1296   1.921       .  S
C1288     Br1292   1.934       .  S
C1297      C1298   1.415       .  A
C1297      C1302   1.414       .  A
C1298      C1299   1.412       .  A
C1298     Br1310   1.930       .  S
C1299      C1300   1.411       .  A
C1299     Br1314   1.931       .  S
C1300      C1303   1.499       .  S
C1300      C1301   1.413       .  A
C1301      C1302   1.412       .  A
C1301     Br1309   1.929       .  S
C1302     Br1313   1.930       .  S
C1303      C1304   1.407       .  A
C1303      C1308   1.408       .  A
C1305     Br1311   1.929       .  S
C1306      C1307   1.427       .  A
C1307      C1308   1.414       .  A
C1307     Br1316   1.932       .  S
C1308     Br1312   1.932       .  S
C1317      C1318   1.419       .  A
C1317      C1322   1.414       .  A
C1318      C1319   1.407       .  A
C1318     Br1330   1.929       .  S
C1319      C1320   1.405       .  A
C1319     Br1334   1.933       .  S
C1320      C1323   1.488       .  S
C1320      C1321   1.408       .  A
C1321      C1322   1.410       .  A
C1321     Br1329   1.929       .  S
C1322     Br1333   1.928       .  S
C1323      C1324   1.407       .  A
C1323      C1328   1.403       .  A
C1324      C1325   1.411       .  A
C1324     Br1335   1.933       .  S
C1325      C1326   1.423       .  A
C1325     Br1331   1.934       .  S
C1326      C1327   1.427       .  A
C1327      C1328   1.410       .  A
C1327     Br1336   1.934       .  S
C1328     Br1332   1.933       .  S
C1337      C1338   1.444       .  A
C1337      C1342   1.434       .  A
C1338      C1339   1.415       .  A
C1338     Br1350   1.936       .  S
C1339      C1340   1.399       .  A
C1339     Br1354   1.940       .  S
C1340      C1343   1.490       .  S
C1340      C1341   1.400       .  A
C1341      C1342   1.411       .  A
C1341     Br1349   1.934       .  S
C1342     Br1353   1.933       .  S
C1343      C1344   1.409       .  A
C1343      C1348   1.407       .  A
C1344      C1345   1.411       .  A
C1344     Br1355   1.930       .  S
C1345      C1346   1.415       .  A
C1345     Br1351   1.931       .  S
C1346      C1347   1.419       .  A
C1347      C1348   1.409       .  A
C1347     Br1356   1.934       .  S
C1348     Br1352   1.932       .  S
C1357      C1358   1.419       .  A
C1357      C1362   1.421       .  A
C1358      C1359   1.410       .  A
C1358     Br1370   1.925       .  S
C1359      C1360   1.408       .  A
C1359     Br1374   1.932       .  S
C1360      C1363   1.498       .  S
C1360      C1361   1.409       .  A
C1361      C1362   1.413       .  A
C1361     Br1369   1.934       .  S
C1362     Br1373   1.921       .  S
C1363      C1364   1.412       .  A
C1363      C1368   1.411       .  A
C1364      C1365   1.408       .  A
C1364     Br1375   1.931       .  S
C1365      C1366   1.415       .  A
C1365     Br1371   1.932       .  S
C1366      C1367   1.417       .  A
C1367      C1368   1.411       .  A
C1367     Br1376   1.931       .  S
C1368     Br1372   1.930       .  S
C1377      C1378   1.412       .  A
C1377      C1382   1.410       .  A
C1378      C1379   1.408       .  A
C1378     Br1390   1.929       .  S
C1379      C1380   1.409       .  A
C1379     Br1394   1.929       .  S
C1380      C1383   1.490       .  S
C1380      C1381   1.411       .  A
C1381      C1382   1.409       .  A
C1381     Br1389   1.929       .  S
C1382     Br1393   1.929       .  S
C1383      C1384   1.402       .  A
C1383      C1388   1.403       .  A
C1384      C1385   1.408       .  A
C1384     Br1395   1.939       .  S
C1385      C1386   1.434       .  A
C1385     Br1391   1.937       .  S
C1386      C1387   1.429       .  A
C1387      C1388   1.414       .  A
C1387     Br1396   1.924       .  S
C1388     Br1392   1.933       .  S
C1397      C1398   1.412       .  A
C1397      C1402   1.414       .  A
C1398      C1399   1.413       .  A
C1398     Br1410   1.927       .  S
C1399      C1400   1.411       .  A
C1399     Br1414   1.928       .  S
C1400      C1403   1.498       .  S
C1400      C1401   1.411       .  A
C1401      C1402   1.413       .  A
C1401     Br1409   1.929       .  S
C1402     Br1413   1.929       .  S
C1403      C1404   1.412       .  A
C1403      C1408   1.406       .  A
C1404      C1405   1.418       .  A
C1404     Br1415   1.927       .  S
C1405      C1406   1.415       .  A
C1405     Br1411   1.925       .  S
C1406      C1407   1.422       .  A
C1407      C1408   1.408       .  A
C1407     Br1416   1.933       .  S
C1408     Br1412   1.934       .  S
C1417      C1418   1.423       .  A
C1417      C1422   1.421       .  A
C1418      C1419   1.411       .  A
C1418     Br1430   1.935       .  S
C1419      C1420   1.407       .  A
C1419     Br1434   1.933       .  S
C1420      C1423   1.494       .  S
C1420      C1421   1.409       .  A
C1421      C1422   1.412       .  A
C1421     Br1429   1.932       .  S
C1422     Br1433   1.933       .  S
C1423      C1424   1.408       .  A
C1423      C1428   1.407       .  A
C1424      C1425   1.411       .  A
C1424     Br1435   1.931       .  S
C1425      C1426   1.415       .  A
C1425     Br1431   1.922       .  S
C1426      C1427   1.418       .  A
C1427      C1428   1.412       .  A
C1427     Br1436   1.914       .  S
C1428     Br1432   1.933       .  S
C1437      C1438   1.424       .  A
C1437      C1442   1.430       .  A
C1438      C1439   1.410       .  A
C1438     Br1450   1.923       .  S
C1439      C1440   1.404       .  A
C1439     Br1454   1.934       .  S
C1440      C1443   1.495       .  S
C1440      C1441   1.406       .  A
C1441      C1442   1.414       .  A
C1441     Br1449   1.932       .  S
C1442     Br1453   1.935       .  S
C1443      C1444   1.411       .  A
C1443      C1448   1.412       .  A
C1444      C1445   1.411       .  A
C1444     Br1455   1.928       .  S
C1445      C1446   1.409       .  A
C1445     Br1451   1.927       .  S
C1446      C1447   1.411       .  A
C1447      C1448   1.412       .  A
C1447     Br1456   1.926       .  S
C1448     Br1452   1.930       .  S
C1457      C1458   1.418       .  A
C1457      C1462   1.414       .  A
C1458      C1459   1.408       .  A
C1458     Br1470   1.933       .  S
C1459      C1460   1.406       .  A
C1459     Br1474   1.930       .  S
C1460      C1463   1.481       .  S
C1460      C1461   1.407       .  A
C1461      C1462   1.406       .  A
C1461     Br1469   1.931       .  S
C1462     Br1473   1.932       .  S
C1463      C1464   1.408       .  A
C1463      C1468   1.406       .  A
C1464      C1465   1.409       .  A
C1464     Br1475   1.928       .  S
C1465      C1466   1.408       .  A
C1465     Br1471   1.924       .  S
C1466      C1467   1.418       .  A
C1467      C1468   1.405       .  A
C1467     Br1476   1.935       .  S
C1468     Br1472   1.933       .  S
C1477      C1478   1.425       .  A
C1477      C1482   1.422       .  A
C1478      C1479   1.409       .  A
C1478     Br1490   1.922       .  S
C1479      C1480   1.403       .  A
C1479     Br1494   1.936       .  S
C1480      C1483   1.484       .  S
C1480      C1481   1.403       .  A
C1481      C1482   1.409       .  A
C1481     Br1489   1.931       .  S
C1482     Br1493   1.929       .  S
C1483      C1484   1.407       .  A
C1483      C1488   1.405       .  A
C1484      C1485   1.410       .  A
C1484     Br1495   1.930       .  S
C1485      C1486   1.418       .  A
C1485     Br1491   1.931       .  S
C1486      C1487   1.420       .  A
C1487      C1488   1.405       .  A
C1487     Br1496   1.935       .  S
C1488     Br1492   1.933       .  S
C1497      C1498   1.411       .  A
C1497      C1502   1.416       .  A
C1498      C1499   1.408       .  A
C1498     Br1510   1.930       .  S
C1499      C1500   1.412       .  A
C1499     Br1514   1.931       .  S
C1500      C1503   1.496       .  S
C1500      C1501   1.411       .  A
C1501      C1502   1.412       .  A
C1501     Br1509   1.929       .  S
C1502     Br1513   1.931       .  S
C1503      C1504   1.404       .  A
C1503      C1508   1.404       .  A
C1504      C1505   1.413       .  A
C1504     Br1515   1.934       .  S
C1505      C1506   1.432       .  A
C1505     Br1511   1.933       .  S
C1506      C1507   1.432       .  A
C1507      C1508   1.414       .  A
C1507     Br1516   1.926       .  S
C1508     Br1512   1.936       .  S
C1517      C1518   1.410       .  A
C1517      C1522   1.412       .  A
C1518      C1519   1.409       .  A
C1518     Br1530   1.929       .  S
C1519      C1520   1.412       .  A
C1519     Br1534   1.930       .  S
C1520      C1523   1.491       .  S
C1520      C1521   1.409       .  A
C1521      C1522   1.409       .  A
C1522     Br1533   1.929       .  S
C1523      C1524   1.402       .  A
C1523      C1528   1.405       .  A
C1524      C1525   1.406       .  A
C1524     Br1535   1.935       .  S
C1525      C1526   1.433       .  A
C1525     Br1531   1.943       .  S
C1526      C1527   1.429       .  A
C1527      C1528   1.415       .  A
C1527     Br1536   1.926       .  S
C1528     Br1532   1.933       .  S
C1537      C1538   1.425       .  A
C1537      C1542   1.414       .  A
C1538      C1539   1.414       .  A
C1538     Br1550   1.923       .  S
C1539      C1540   1.408       .  A
C1539     Br1554   1.935       .  S
C1540      C1543   1.491       .  S
C1540      C1541   1.406       .  A
C1541      C1542   1.404       .  A
C1541     Br1549   1.932   1_565  S
C1542     Br1553   1.920   1_565  S
C1543      C1544   1.411       .  A
C1543      C1548   1.410       .  A
C1544      C1545   1.408       .  A
C1544     Br1555   1.932       .  S
C1545      C1546   1.415       .  A
C1545     Br1551   1.932       .  S
C1546      C1547   1.415       .  A
C1547      C1548   1.408       .  A
C1547     Br1556   1.930       .  S
C1557      C1558   1.410       .  A
C1557      C1562   1.412       .  A
C1558      C1559   1.408       .  A
C1558     Br1570   1.930       .  S
C1559      C1560   1.412       .  A
C1559     Br1574   1.931       .  S
C1560      C1563   1.492       .  S
C1560      C1561   1.409       .  A
C1561      C1562   1.412       .  A
C1562     Br1573   1.926       .  S
C1563      C1564   1.403       .  A
C1563      C1568   1.401       .  A
C1564      C1565   1.415       .  A
C1564     Br1575   1.935       .  S
C1565      C1566   1.436       .  A
C1565     Br1571   1.937       .  S
C1566      C1567   1.429       .  A
C1567      C1568   1.409       .  A
C1567     Br1576   1.926       .  S
C1568     Br1572   1.935       .  S
C1577      C1578   1.420       .  A
C1577      C1582   1.417       .  A
C1578      C1579   1.411       .  A
C1578     Br1590   1.934       .  S
C1579      C1580   1.409       .  A
C1579     Br1594   1.931       .  S
C1580      C1583   1.492       .  S
C1580      C1581   1.409       .  A
C1581      C1582   1.409       .  A
C1581     Br1589   1.933       .  S
C1582     Br1593   1.933       .  S
C1583      C1584   1.410       .  A
C1583      C1588   1.410       .  A
C1584      C1585   1.408       .  A
C1584     Br1595   1.932       .  S
C1585      C1586   1.411       .  A
C1585     Br1591   1.924       .  S
C1586      C1587   1.416       .  A
C1587      C1588   1.411       .  A
C1587     Br1596   1.933       .  S
C1588     Br1592   1.930       .  S
C1597      C1598   1.417       .  A
C1597      C1602   1.423       .  A
C1598      C1599   1.411       .  A
C1598     Br1610   1.929       .  S
C1599      C1600   1.408       .  A
C1599     Br1614   1.931       .  S
C1600      C1603   1.487       .  S
C1600      C1601   1.406       .  A
C1601      C1602   1.405       .  A
C1601     Br1609   1.935       .  S
C1602     Br1613   1.939       .  S
C1603      C1604   1.411       .  A
C1603      C1608   1.411       .  A
C1604      C1605   1.408       .  A
C1604     Br1615   1.930       .  S
C1605      C1606   1.411       .  A
C1605     Br1611   1.932       .  S
C1606      C1607   1.409       .  A
C1607      C1608   1.406       .  A
C1607     Br1616   1.928       .  S
C1608     Br1612   1.932       .  S
C1617      C1618   1.431       .  A
C1618      C1619   1.414       .  A
C1618     Br1630   1.936       .  S
C1619      C1620   1.406       .  A
C1619     Br1634   1.932       .  S
C1620      C1623   1.497       .  S
C1620      C1621   1.406       .  A
C1622     Br1633   1.924       .  S
C1623      C1624   1.412       .  A
C1623      C1628   1.411       .  A
C1624      C1625   1.411       .  A
C1624     Br1635   1.929       .  S
C1625      C1626   1.412       .  A
C1625     Br1631   1.929       .  S
C1626      C1627   1.412       .  A
C1627      C1628   1.412       .  A
C1627     Br1636   1.929       .  S
C1628     Br1632   1.929       .  S
C1637      C1638   1.415   1_565  A
C1637      C1642   1.411       .  A
C1638      C1639   1.414   1_545  A
C1639      C1640   1.411       .  A
C1640      C1643   1.499       .  S
C1640      C1641   1.410       .  A
C1641      C1642   1.410       .  A
C1641     Br1649   1.933       .  S
C1642     Br1653   1.912       .  S
C1643      C1644   1.410       .  A
C1643      C1648   1.413       .  A
C1644      C1645   1.411       .  A
C1644     Br1655   1.931       .  S
C1645      C1646   1.418       .  A
C1645     Br1651   1.932       .  S
C1646      C1647   1.416       .  A
C1647      C1648   1.412       .  A
C1647     Br1656   1.931       .  S
C1648     Br1652   1.931       .  S
C1657      C1658   1.429       .  A
C1657      C1662   1.419       .  A
C1658      C1659   1.405       .  A
C1658     Br1670   1.941       .  S
C1659      C1660   1.403       .  A
C1659     Br1674   1.935       .  S
C1660      C1663   1.488       .  S
C1660      C1661   1.409       .  A
C1661      C1662   1.414       .  A
C1661     Br1669   1.931       .  S
C1662     Br1673   1.924       .  S
C1663      C1664   1.412       .  A
C1663      C1668   1.410       .  A
C1664      C1665   1.408       .  A
C1664     Br1675   1.931       .  S
C1665      C1666   1.410       .  A
C1665     Br1671   1.928       .  S
C1666      C1667   1.410       .  A
C1667      C1668   1.408       .  A
C1667     Br1676   1.930       .  S
C1668     Br1672   1.929       .  S
C1677      C1678   1.431       .  A
C1677      C1682   1.429       .  A
C1678      C1679   1.413       .  A
C1678     Br1690   1.937       .  S
C1679      C1680   1.404       .  A
C1679     Br1694   1.934       .  S
C1680      C1683   1.492       .  S
C1680      C1681   1.404       .  A
C1681      C1682   1.412       .  A
C1681     Br1689   1.934       .  S
C1682     Br1693   1.937       .  S
C1683      C1684   1.405       .  A
C1683      C1688   1.403       .  A
C1684      C1685   1.414       .  A
C1684     Br1695   1.932       .  S
C1685      C1686   1.426       .  A
C1685     Br1691   1.929       .  S
C1686      C1687   1.421       .  A
C1687      C1688   1.410       .  A
C1687     Br1696   1.918       .  S
C1688     Br1692   1.934       .  S
C1697      C1698   1.434       .  A
C1697      C1702   1.426       .  A
C1698      C1699   1.409       .  A
C1698     Br1710   1.942       .  S
C1699      C1700   1.403       .  A
C1699     Br1714   1.936       .  S
C1700      C1703   1.490       .  S
C1700      C1701   1.405       .  A
C1701      C1702   1.412       .  A
C1701     Br1709   1.933       .  S
C1702     Br1713   1.928       .  S
C1703      C1704   1.411       .  A
C1703      C1708   1.410       .  A
C1704      C1705   1.410       .  A
C1704     Br1715   1.928       .  S
C1705      C1706   1.409       .  A
C1705     Br1711   1.927       .  S
C1706      C1707   1.410       .  A
C1707      C1708   1.407       .  A
C1707     Br1716   1.930       .  S
C1708     Br1712   1.930       .  S
C1717      C1718   1.419       .  A
C1717      C1722   1.408       .  A
C1718      C1719   1.403       .  A
C1718     Br1730   1.939       .  S
C1719      C1720   1.408       .  A
C1719     Br1734   1.935       .  S
C1720      C1723   1.481       .  S
C1720      C1721   1.410       .  A
C1721      C1722   1.407       .  A
C1721     Br1729   1.930       .  S
C1722     Br1733   1.925       .  S
C1723      C1724   1.410       .  A
C1723      C1728   1.409       .  A
C1724      C1725   1.404       .  A
C1724     Br1735   1.931       .  S
C1725      C1726   1.411       .  A
C1725     Br1731   1.931       .  S
C1726      C1727   1.412       .  A
C1727      C1728   1.405       .  A
C1727     Br1736   1.931       .  S
C1728     Br1732   1.930       .  S
C1737      C1738   1.410       .  A
C1737      C1742   1.411       .  A
C1738      C1739   1.407       .  A
C1738     Br1750   1.929       .  S
C1739      C1740   1.410       .  A
C1739     Br1754   1.930       .  S
C1740      C1743   1.485       .  S
C1740      C1741   1.408       .  A
C1741      C1742   1.407       .  A
C1741     Br1749   1.929       .  S
C1742     Br1753   1.929       .  S
C1743      C1744   1.405       .  A
C1743      C1748   1.409       .  A
C1744      C1745   1.405       .  A
C1744     Br1755   1.932       .  S
C1745      C1746   1.420       .  A
C1745     Br1751   1.936       .  S
C1746      C1747   1.411       .  A
C1747      C1748   1.410       .  A
C1747     Br1756   1.927       .  S
C1748     Br1752   1.928       .  S
C1757      C1758   1.411       .  A
C1757      C1762   1.410       .  A
C1758      C1759   1.408       .  A
C1758     Br1770   1.929       .  S
C1759      C1760   1.409       .  A
C1759     Br1774   1.928       .  S
C1760      C1763   1.488       .  S
C1760      C1761   1.411       .  A
C1761      C1762   1.407       .  A
C1761     Br1769   1.930       .  S
C1762     Br1773   1.929       .  S
C1763      C1764   1.405       .  A
C1763      C1768   1.400       .  A
C1764      C1765   1.414       .  A
C1764     Br1775   1.932       .  S
C1765      C1766   1.428       .  A
C1765     Br1771   1.931       .  S
C1766      C1767   1.431       .  A
C1767      C1768   1.408       .  A
C1767     Br1776   1.929       .  S
C1768     Br1772   1.937       .  S
C1777      C1778   1.421       .  A
C1777      C1782   1.421       .  A
C1778      C1779   1.411       .  A
C1778     Br1790   1.934       .  S
C1779      C1780   1.407       .  A
C1779     Br1794   1.930       .  S
C1780      C1783   1.489       .  S
C1780      C1781   1.404       .  A
C1781      C1782   1.409       .  A
C1781     Br1789   1.935       .  S
C1782     Br1793   1.922       .  S
C1783      C1784   1.408       .  A
C1783      C1788   1.409       .  A
C1784      C1785   1.408       .  A
C1784     Br1795   1.931       .  S
C1785      C1786   1.415       .  A
C1785     Br1791   1.930       .  S
C1786      C1787   1.414       .  A
C1787      C1788   1.410       .  A
C1787     Br1796   1.932       .  S
C1788     Br1792   1.930       .  S
C1797      C1798   1.418       .  A
C1797      C1802   1.416       .  A
C1798      C1799   1.406       .  A
C1798     Br1810   1.934       .  S
C1799      C1800   1.408       .  A
C1799     Br1814   1.933       .  S
C1800      C1803   1.490       .  S
C1800      C1801   1.411       .  A
C1801      C1802   1.410       .  A
C1801     Br1809   1.931       .  S
C1802     Br1813   1.932       .  S
C1803      C1804   1.409       .  A
C1803      C1808   1.406       .  A
C1804      C1805   1.414       .  A
C1804     Br1815   1.934       .  S
C1805      C1806   1.422       .  A
C1805     Br1811   1.920       .  S
C1806      C1807   1.416       .  A
C1807      C1808   1.405       .  A
C1807     Br1816   1.920       .  S
C1808     Br1812   1.932       .  S
C1817      C1818   1.412       .  A
C1817      C1822   1.412       .  A
C1818      C1819   1.407       .  A
C1818     Br1830   1.933       .  S
C1819      C1820   1.413       .  A
C1819     Br1834   1.933       .  S
C1820      C1823   1.490       .  S
C1820      C1821   1.411       .  A
C1821      C1822   1.409       .  A
C1821     Br1829   1.931       .  S
C1822     Br1833   1.931       .  S
C1823      C1824   1.399       .  A
C1823      C1828   1.407       .  A
C1824      C1825   1.402       .  A
C1824     Br1835   1.939       .  S
C1825      C1826   1.436       .  A
C1825     Br1831   1.941       .  S
C1826      C1827   1.432       .  A
C1827      C1828   1.418       .  A
C1827     Br1836   1.925       .  S
C1828     Br1832   1.936       .  S
C1837      C1838   1.415       .  A
C1837      C1842   1.414       .  A
C1838      C1839   1.406       .  A
C1838     Br1850   1.932       .  S
C1839      C1840   1.406       .  A
C1839     Br1854   1.931       .  S
C1840      C1843   1.487       .  S
C1840      C1841   1.410       .  A
C1841      C1842   1.411       .  A
C1841     Br1849   1.930       .  S
C1842     Br1853   1.931       .  S
C1843      C1844   1.405       .  A
C1843      C1848   1.401       .  A
C1844      C1845   1.412       .  A
C1844     Br1855   1.931       .  S
C1845      C1846   1.419       .  A
C1845     Br1851   1.919       .  S
C1846      C1847   1.424       .  A
C1847      C1848   1.408       .  A
C1847     Br1856   1.913       .  S
C1848     Br1852   1.937       .  S
