geometry optimzed in LAMMPS
_audit_creation_date              2020-11-30 
_audit_creation_method            'lammps2cif' 
_symmetry_space_group_name_H-M    'P1' 
_symmetry_Int_Tables_number       1 
_symmetry_cell_setting            triclinic 
loop_ 
_symmetry_equiv_pos_as_xyz 
  x,y,z 
_cell_length_a                    52.27957833 
_cell_length_b                    51.053803740714066 
_cell_length_c                    40.93647144663733 
_cell_angle_alpha                 90.1307526279902 
_cell_angle_beta                  90.01870900672935 
_cell_angle_gamma                 89.9235134649467 
loop_ 
_atom_site_label 
_atom_site_type_symbol 
_atom_site_fract_x 
_atom_site_fract_y 
_atom_site_fract_z 
_atom_site_charge 
O1          O  0.26140934  0.20565990  0.40455585    -0.86100
O2          O  0.25575108  0.20407893  0.59125647    -0.86200
O3          O  0.30098694  0.17441216  0.49603055    -0.87900
O4          O  0.21888650  0.17403578  0.49899059    -0.86700
O5          O  0.18763762  0.20539038  0.49823421    -0.86300
O6          O  0.33136473  0.20619937  0.50081161    -0.87600
O7          O  0.25964288  0.17394900  0.55016362    -0.86100
O8          O  0.26074070  0.17435008  0.44479892    -0.85700
Zr9        Zr  0.25988643  0.19613166  0.49777429     2.84300
O10         O  0.23380751  0.22151512  0.53168573    -1.07700
O11         O  0.28591807  0.22264378  0.46546839    -1.08400
C12         C  0.26128633  0.18156318  0.41457802     1.07000
C13         C  0.25692041  0.18018973  0.58052218     1.07000
C14         C  0.32438098  0.18210492  0.49797419     1.10000
C15         C  0.19530629  0.18140443  0.49913656     1.07700
H16         H  0.29532566  0.21041187  0.54643680     0.33300
O17         O  0.28472634  0.22172085  0.53300699    -1.28600
H18         H  0.22377937  0.21113075  0.45029635     0.33000
O19         O  0.23442827  0.22219448  0.46402612    -1.30300
O20         O  0.25789418  0.29164814  0.59278010    -0.86100
O21         O  0.25996111  0.29286457  0.40579021    -0.87600
O22         O  0.33145194  0.24675278  0.55385109    -0.86100
O23         O  0.18674982  0.24740096  0.55119256    -0.86200
O24         O  0.18759844  0.24899663  0.44544235    -0.85900
O25         O  0.33286935  0.24828656  0.44881424    -0.85700
O26         O  0.29953818  0.32264536  0.50215597    -0.86100
O27         O  0.21714308  0.32100786  0.49630259    -0.85600
O28         O  0.33075744  0.29123692  0.50227161    -0.86600
O29         O  0.18643467  0.28927315  0.49836151    -0.85800
O30         O  0.30061129  0.24669750  0.59385813    -0.86200
O31         O  0.30416928  0.25003306  0.40653838    -0.85900
O32         O  0.21797399  0.24985568  0.40489255    -0.85500
O33         O  0.21646626  0.24693434  0.59255728    -0.86000
O34         O  0.25800803  0.32267766  0.55217485    -0.86200
O35         O  0.25805705  0.32320487  0.44732000    -0.87600
Zr36       Zr  0.25860098  0.24789705  0.56652979     2.83100
Zr37       Zr  0.26066789  0.24901022  0.43120729     2.83500
Zr38       Zr  0.31037749  0.24854153  0.50070285     2.84100
Zr39       Zr  0.20849939  0.24771633  0.49830411     2.83400
Zr40       Zr  0.25881590  0.30044139  0.49959862     2.84200
O41         O  0.23411551  0.27424054  0.46529607    -1.08200
O42         O  0.28438765  0.27466634  0.53376277    -1.07700
C43         C  0.25786355  0.31570486  0.58246691     1.07000
C44         C  0.25856758  0.31668086  0.41682354     1.09600
C45         C  0.32419822  0.24622290  0.58402835     1.07200
C46         C  0.19322980  0.24705116  0.58169282     1.07500
C47         C  0.19444486  0.24965689  0.41517418     1.07100
C48         C  0.32736333  0.24960392  0.41812243     1.06700
C49         C  0.32309722  0.31527084  0.50250368     1.07100
C50         C  0.19368551  0.31332238  0.49688139     1.06600
H51         H  0.29647221  0.28643224  0.45359305     0.33300
O52         O  0.28551754  0.27505798  0.46642289    -1.29300
H53         H  0.22186750  0.28524033  0.54596108     0.33300
O54         O  0.23297366  0.27428410  0.53273018    -1.30600
N55         N  0.47081860  0.99800110  0.48761918    -0.36200
N56         N  0.00952908  0.45783947  0.49277918    -0.56800
N57         N  0.04840210  0.99851388  0.49853408    -0.36200
N58         N  0.00970736  0.03856486  0.48958096    -0.56800
C59         C  0.45643831  0.47653140  0.48176772     0.27400
C60         C  0.45629804  0.01911996  0.48055634     0.27400
C61         C  0.06347173  0.47721777  0.49491941     0.27400
C62         C  0.06338316  0.01971200  0.49391802     0.27400
C63         C  0.48869460  0.44244874  0.49578792     0.36000
C64         C  0.02990702  0.44262844  0.49968680     0.36000
C65         C  0.48886933  0.05412619  0.48994365     0.36000
C66         C  0.02987345  0.05433990  0.49541827     0.36000
C67         C  0.43247934  0.48407739  0.47071151    -0.21500
C68         C  0.43227155  0.01095166  0.47033821    -0.21500
C69         C  0.08847560  0.48507377  0.48903318    -0.21500
C70         C  0.08835908  0.01186574  0.48813588    -0.21500
C71         C  0.49587633  0.41724470  0.50433660    -0.22500
C72         C  0.02203517  0.41725612  0.50632546    -0.22500
C73         C  0.49594843  0.08002738  0.49482708    -0.22500
C74         C  0.02194301  0.08012401  0.49855953    -0.22500
C75         C  0.46338204  0.45047785  0.48923722    -0.17900
C76         C  0.46349689  0.04550576  0.48545587    -0.17900
C77         C  0.05553905  0.04605436  0.49623166    -0.17900
C78         C  0.05560289  0.45088290  0.49801903    -0.17900
H79         H  0.41648831  0.47153588  0.46461056     0.15000
H80         H  0.41602349  0.02298889  0.46383143     0.15000
H81         H  0.10521941  0.47286819  0.48582013     0.15000
H82         H  0.10486896  0.02417066  0.48389134     0.15000
H83         H  0.48362173  0.40046108  0.50814958     0.13300
H84         H  0.03383011  0.40043278  0.51194390     0.13300
H85         H  0.48369764  0.09712014  0.49565653     0.13300
H86         H  0.03366492  0.09725576  0.50280878     0.13300
H87         H  0.48799764  0.99837698  0.50016090     0.26600
H88         H  0.02976456  0.99862650  0.50710955     0.26600
O89         O  0.49151552  0.45387145  0.90678733    -0.86100
O90         O  0.48034202  0.45501545  0.09262582    -0.86200
O91         O  0.02676845  0.42326148  0.00268513    -0.87900
O92         O  0.44598212  0.42485423  0.99642219    -0.86700
O93         O  0.41516860  0.45689622  0.99591973    -0.86300
O94         O  0.05824005  0.45448487  0.00337583    -0.87600
O95         O  0.48371041  0.42434891  0.05202596    -0.86100
O96         O  0.49096170  0.42411246  0.94827142    -0.85700
Zr97       Zr  0.48684134  0.44664908  0.00004776     2.84300
O98         O  0.45965816  0.47295030  0.03126104    -1.07700
O99         O  0.01464405  0.47183169  0.96851056    -1.08400
C100        C  0.49168876  0.42998797  0.91773026     1.07000
C101        C  0.48103615  0.43096570  0.08222848     1.07000
C102        C  0.05029340  0.43048603  0.00325179     1.10000
C103        C  0.42265313  0.43281428  0.99583944     1.07700
H104        H  0.02097876  0.46068339  0.05019909     0.33300
O105        O  0.01106917  0.47206544  0.03599885    -1.28600
H106        H  0.45282555  0.46115633  0.95032924     0.33000
O107        O  0.46297686  0.47246136  0.96433500    -1.30300
O108        O  0.48196094  0.04247483  0.09342667    -0.86100
O109        O  0.49144474  0.04133996  0.90615533    -0.87600
O110        O  0.05746714  0.49609716  0.05859923    -0.86100
O111        O  0.41184892  0.49977483  0.04661470    -0.86200
O112        O  0.41716387  0.49802589  0.94148295    -0.85900
O113        O  0.06228313  0.50017495  0.95363830    -0.85700
O114        O  0.02934145  0.07213863  0.00511511    -0.86100
O115        O  0.44651360  0.07378711  0.99522428    -0.85600
O116        O  0.05970489  0.04011166  0.01059605    -0.86600
O117        O  0.41583658  0.04213536  0.99085725    -0.85800
O118        O  0.02517298  0.49798888  0.09677003    -0.86200
O119        O  0.03498314  0.99728526  0.91024965    -0.85900
O120        O  0.44915074  0.99596601  0.90333306    -0.85500
O121        O  0.44002017  0.49767177  0.08941008    -0.86000
O122        O  0.48485405  0.07319544  0.05286992    -0.86200
O123        O  0.49109634  0.07264253  0.94677946    -0.87600
Zr124      Zr  0.48377648  0.49880447  0.06728752     2.83100
Zr125      Zr  0.49075049  0.49792616  0.93241447     2.83500
Zr126      Zr  0.03834501  0.49795244  0.00441511     2.84100
Zr127      Zr  0.43618742  0.49939761  0.99566073     2.83400
Zr128      Zr  0.48764557  0.05119151  0.99982615     2.84200
O129        O  0.46376735  0.02496866  0.96404866    -1.08200
O130        O  0.01124218  0.02469812  0.03546001    -1.07700
C131        C  0.48278446  0.06653702  0.08324357     1.07000
C132        C  0.49179600  0.06537092  0.91653263     1.09600
C133        C  0.04908635  0.49675867  0.08825420     1.07200
C134        C  0.41704948  0.49849418  0.07745638     1.07500
C135        C  0.42515886  0.99616488  0.91172164     1.07100
C136        C  0.05783968  0.99886226  0.92268535     1.06700
C137        C  0.05259218  0.06434860  0.00964403     1.07100
C138        C  0.42304034  0.06630273  0.99187337     1.06600
H139        H  0.02622606  0.03531318  0.95633133     0.33300
O140        O  0.01469975  0.02435297  0.96861035    -1.29300
H141        H  0.44857240  0.03671528  0.04374228     0.33300
O142        O  0.46004435  0.02551778  0.03140053    -1.30600
N143        N  0.27511284  0.24907824  0.00006942    -0.36200
N144        N  0.23811579  0.28970720  0.01450460    -0.56800
N145        N  0.19883471  0.25001969  0.02264534    -0.36200
N146        N  0.23581972  0.20937311  0.00470539    -0.56800
C147        C  0.28846610  0.27069469  0.99169061     0.27400
C148        C  0.28758751  0.22826089  0.98725514     0.27400
C149        C  0.18406923  0.27181503  0.02276516     0.27400
C150        C  0.18299407  0.22925644  0.01965140     0.27400
C151        C  0.25965000  0.30417410  0.01620306     0.36000
C152        C  0.21882192  0.30520518  0.02487162     0.36000
C153        C  0.25627051  0.19339759  0.00094965     0.36000
C154        C  0.21575745  0.19385703  0.01217331     0.36000
C155        C  0.30956460  0.26347984  0.97314193    -0.21500
C156        C  0.30920463  0.23665289  0.97076968    -0.21500
C157        C  0.15848711  0.26467226  0.02134776    -0.21500
C158        C  0.15780819  0.23787537  0.01951258    -0.21500
C159        C  0.25406109  0.32888659  0.02846128    -0.22500
C160        C  0.22806642  0.32977668  0.03301530    -0.22500
C161        C  0.24908047  0.16754462  0.00532479    -0.22500
C162        C  0.22334776  0.16781302  0.01219481    -0.22500
C163        C  0.28347580  0.29643820  0.00291034    -0.17900
C164        C  0.28107759  0.20176824  0.99213954    -0.17900
C165        C  0.19040724  0.20265233  0.01742726    -0.17900
C166        C  0.19279153  0.29805086  0.02438778    -0.17900
H167        H  0.32416701  0.27616577  0.96317822     0.15000
H168        H  0.32336110  0.22467261  0.95850879     0.15000
H169        H  0.14192339  0.27741056  0.02166461     0.15000
H170        H  0.14063036  0.22613509  0.01792375     0.15000
H171        H  0.26712234  0.34503866  0.03222896     0.13300
H172        H  0.21729201  0.34665693  0.04118593     0.13300
H173        H  0.26103093  0.15028885  0.00329182     0.13300
H174        H  0.21157214  0.15077298  0.01666927     0.13300
H175        H  0.26060802  0.24823596  0.01734382     0.26600
H176        H  0.21838504  0.24914836  0.02644298     0.26600
C177        C  0.03531405  0.25060400  0.26904804     0.86900
C178        C  0.03011750  0.22583537  0.24806594    -0.53300
C179        C  0.50706479  0.22539431  0.23219439     0.09800
C180        C  0.49029184  0.24941668  0.24037886     0.20800
C181        C  0.02979184  0.27385322  0.24626492    -0.54100
C182        C  0.50656173  0.27351184  0.23051117     0.09900
C183        C  0.51264042  0.25042863  0.29285593    -0.53600
C184        C  0.48919731  0.25023663  0.27832731     0.10500
H185        H  0.04219292  0.20869774  0.24733260     0.15000
H186        H  0.47150342  0.24820410  0.22829799     0.00800
H187        H  0.04325400  0.28988628  0.24392468     0.15300
H188        H  0.51487875  0.25049235  0.31924004     0.15100
C189        C  0.21195420  0.49940059  0.22725591     0.86900
C190        C  0.21563838  0.47484806  0.24863736    -0.53300
C191        C  0.23786097  0.47401321  0.26623427     0.09800
C192        C  0.25520098  0.49818347  0.26024273     0.20800
C193        C  0.21586818  0.02268083  0.25047988    -0.54100
C194        C  0.23827322  0.02242444  0.26780138     0.09900
C195        C  0.23634238  0.49875673  0.20583150    -0.53600
C196        C  0.25890453  0.49868397  0.22281268     0.10500
H197        H  0.20208813  0.45879905  0.24912417     0.15000
H198        H  0.27346186  0.49771322  0.27405736     0.00800
H199        H  0.20201681  0.03846970  0.25261934     0.15300
H200        H  0.23621380  0.49727726  0.17942642     0.15100
C201        C  0.03339656  0.24733685  0.72609371     0.86900
C202        C  0.02992548  0.27125002  0.74868725    -0.53300
C203        C  0.50812768  0.27113313  0.76708694     0.09800
C204        C  0.49064757  0.24727026  0.76006839     0.20800
C205        C  0.03006278  0.22349294  0.74829829    -0.54100
C206        C  0.50782759  0.22282364  0.76582841     0.09900
C207        C  0.50866225  0.24845141  0.70528757    -0.53600
C208        C  0.48618840  0.24813682  0.72257568     0.10500
H209        H  0.04284737  0.28782966  0.74924823     0.15000
H210        H  0.47273115  0.24739448  0.77457670     0.00800
H211        H  0.04434206  0.20806208  0.74977548     0.15300
H212        H  0.50880908  0.25008564  0.67891126     0.15100
C213        C  0.21846205  0.49847309  0.77607558     0.86900
C214        C  0.21966396  0.02195598  0.75261996    -0.53300
C215        C  0.24026595  0.02251199  0.73204618     0.09800
C216        C  0.25796326  0.49842655  0.73624347     0.20800
C217        C  0.21941721  0.47494272  0.75229353    -0.54100
C218        C  0.24023107  0.47445205  0.73214933     0.09900
C219        C  0.24454178  0.49830884  0.79330262    -0.53600
C220        C  0.26534081  0.49858141  0.77285759     0.10500
H221        H  0.20510948  0.03701473  0.75193788     0.15000
H222        H  0.27443095  0.49817280  0.71921018     0.00800
H223        H  0.20485142  0.45987905  0.75092728     0.15300
H224        H  0.24635397  0.49834075  0.81973268     0.15100
C225        C  0.10382948  0.47403217  0.14293724    -0.05100
C226        C  0.11330932  0.49815763  0.15482578     0.09100
C227        C  0.09999895  0.02152469  0.14716234    -0.02400
C228        C  0.07838129  0.02090385  0.12638696    -0.00700
C229        C  0.06912004  0.49683456  0.11416916    -0.04300
C230        C  0.08160368  0.47334418  0.12317085     0.02700
C231        C  0.13807556  0.49919662  0.17381341     0.09500
C232        C  0.10904403  0.04638007  0.15988031     0.35400
C233        C  0.07183951  0.44842856  0.11167081     0.38900
C234        C  0.16012349  0.51004457  0.15948859    -0.04700
C235        C  0.18303830  0.51257716  0.17760011     0.02500
C236        C  0.18562272  0.50087249  0.20906566    -0.04300
C237        C  0.16253386  0.49211408  0.22429104    -0.00500
C238        C  0.13927948  0.49070609  0.20650545    -0.03100
C239        C  0.15927360  0.51852672  0.12565500     0.36200
C240        C  0.16181953  0.48588136  0.25883873     0.39800
C241        C  0.20223810  0.53017613  0.16480751     0.38900
C242        C  0.11644161  0.48031567  0.22187397     0.35900
C243        C  0.11762403  0.45001691  0.14993575     0.36500
C244        C  0.06647927  0.04520930  0.11607230     0.39800
N245        N  0.21677035  0.54467932  0.15364679    -0.38300
N246        N  0.15857172  0.52510485  0.09863356    -0.39900
N247        N  0.16099554  0.48059406  0.28629865    -0.37600
N248        N  0.09829848  0.47176269  0.23400359    -0.40000
N249        N  0.11632774  0.06623255  0.16989134    -0.39800
N250        N  0.05709899  0.06457258  0.10755739    -0.37400
N251        N  0.06410870  0.42838821  0.10291426    -0.38500
N252        N  0.12876296  0.43094502  0.15555542    -0.40100
C253        C  0.31261757  0.02054285  0.16567896    -0.05100
C254        C  0.32951195  0.49904166  0.16704706     0.09100
C255        C  0.32448492  0.47840852  0.18897181    -0.02400
C256        C  0.30220410  0.47881336  0.20861577    -0.00700
C257        C  0.28425908  0.49945961  0.20558211    -0.04300
C258        C  0.29013597  0.02077763  0.18478098     0.02700
C259        C  0.35237136  0.49802450  0.14482861     0.09500
C260        C  0.34225032  0.45662470  0.19102093     0.35400
C261        C  0.27430645  0.04411753  0.18525770     0.38900
C262        C  0.37525139  0.01088799  0.15338066    -0.04700
C263        C  0.39638164  0.01085289  0.13175677     0.02500
C264        C  0.39478335  0.49808050  0.10089687    -0.04300
C265        C  0.37139081  0.48547506  0.09239743    -0.00500
C266        C  0.35057919  0.48522205  0.11442929    -0.03100
C267        C  0.37673162  0.02475692  0.18429151     0.36200
C268        C  0.36804546  0.47300953  0.06081876     0.39800
C269        C  0.41919832  0.02526216  0.14091457     0.38900
C270        C  0.32689985  0.47215068  0.10559111     0.35900
C271        C  0.31857119  0.04256852  0.14469247     0.36500
C272        C  0.29821942  0.45801095  0.23201043     0.39800
N273        N  0.43730846  0.03682470  0.14841807    -0.38300
N274        N  0.37774043  0.03593091  0.20888429    -0.39900
N275        N  0.36462871  0.46331615  0.03561433    -0.37600
N276        N  0.30799388  0.46176372  0.09864993    -0.40000
N277        N  0.35644190  0.43925243  0.19252198    -0.39800
N278        N  0.29615944  0.44127590  0.25082080    -0.37400
N279        N  0.26238485  0.06320904  0.18636709    -0.38500
N280        N  0.32350557  0.06015490  0.12806942    -0.40100
C281        C  0.46793408  0.32794472  0.18645636    -0.05100
C282        C  0.48728235  0.34021350  0.16816957     0.09100
C283        C  0.01170501  0.32869060  0.16671990    -0.02400
C284        C  0.01747466  0.30628427  0.18551279    -0.00700
C285        C  0.49877734  0.29491598  0.20654160    -0.04300
C286        C  0.47334691  0.30513144  0.20491652     0.02700
C287        C  0.48188139  0.36442746  0.14849842     0.09500
C288        C  0.03085510  0.33969922  0.14503222     0.35400
C289        C  0.45205175  0.29238036  0.22086902     0.38900
C290        C  0.49081494  0.38905802  0.15918548    -0.04700
C291        C  0.48987495  0.41104668  0.13821094     0.02500
C292        C  0.47922991  0.40878736  0.10638655    -0.04300
C293        C  0.96855044  0.38420810  0.09686395    -0.00500
C294        C  0.97018255  0.36224921  0.11767543    -0.03100
C295        C  0.50156083  0.39153037  0.19171450     0.36200
C296        C  0.95615937  0.38081926  0.06541208     0.39800
C297        C  0.50138943  0.43541453  0.14899859     0.38900
C298        C  0.96052219  0.33698217  0.10696161     0.35900
C299        C  0.44220640  0.33871101  0.18583177     0.36500
C300        C  0.04260552  0.29456117  0.18167000     0.39800
N301        N  0.51065868  0.45479582  0.15768197    -0.38300
N302        N  0.51001302  0.39345642  0.21773772    -0.39900
N303        N  0.94640391  0.37734095  0.04040312    -0.37600
N304        N  0.95280693  0.31681421  0.09859913    -0.40000
N305        N  0.04600947  0.34842436  0.12758532    -0.39800
N306        N  0.06287424  0.28575618  0.17857906    -0.37400
N307        N  0.43423242  0.28262500  0.23238623    -0.38500
N308        N  0.42164330  0.34712011  0.18515192    -0.40100
C309        C  0.01375267  0.17201524  0.16647367    -0.05100
C310        C  0.49114848  0.15738093  0.17052891     0.09100
C311        C  0.47253633  0.16627639  0.19291183    -0.02400
C312        C  0.47664994  0.18935878  0.21157215    -0.00700
C313        C  0.50004357  0.20332227  0.20900732    -0.04300
C314        C  0.01786337  0.19513059  0.18485101     0.02700
C315        C  0.48655502  0.13327173  0.14992612     0.09500
C316        C  0.44929458  0.15119420  0.19720217     0.35400
C317        C  0.03955611  0.21157822  0.17691179     0.38900
C318        C  0.49624735  0.10869401  0.15962651    -0.04700
C319        C  0.49379465  0.08647722  0.13898788     0.02500
C320        C  0.48177752  0.08864448  0.10793683    -0.04300
C321        C  0.47029644  0.11306063  0.09962170    -0.00500
C322        C  0.47312707  0.13521653  0.12017273    -0.03100
C323        C  0.50926213  0.10648874  0.19078448     0.36200
C324        C  0.95490695  0.11554572  0.07027814     0.39800
C325        C  0.50413339  0.06163018  0.14988274     0.38900
C326        C  0.96265469  0.16035049  0.11039726     0.35900
C327        C  0.03299436  0.16296576  0.14352858     0.36500
C328        C  0.45615417  0.19882948  0.23219862     0.39800
N329        N  0.51223596  0.04183064  0.15895516    -0.38300
N330        N  0.51964159  0.10487139  0.21567057    -0.39900
N331        N  0.94245202  0.11784564  0.04708314    -0.37600
N332        N  0.95440421  0.18045655  0.10268898    -0.40000
N333        N  0.43087299  0.13898290  0.20073124    -0.39800
N334        N  0.43891163  0.20613051  0.24743259    -0.37400
N335        N  0.05659663  0.22485186  0.16988065    -0.38500
N336        N  0.04833826  0.15541158  0.12543545    -0.40100
C337        C  0.11187121  0.39446024  0.98683137    -0.05100
C338        C  0.11062753  0.37369169  0.00956515     0.09100
C339        C  0.08793487  0.36987419  0.02773837    -0.02400
C340        C  0.06825850  0.38870995  0.02649417    -0.00700
C341        C  0.06982299  0.40956584  0.00392873    -0.04300
C342        C  0.09042007  0.41049314  0.98188827     0.02700
C343        C  0.13263387  0.35520554  0.01332987     0.09500
C344        C  0.08460332  0.34633236  0.04708419     0.35400
C345        C  0.08780341  0.42486369  0.95159833     0.38900
C346        C  0.14518713  0.35267050  0.04381491    -0.04700
C347        C  0.16465862  0.33381820  0.04784831     0.02500
C348        C  0.17326181  0.31918111  0.02071938    -0.04300
C349        C  0.16185569  0.32301771  0.98979570    -0.00500
C350        C  0.14073881  0.33983470  0.98651795    -0.03100
C351        C  0.13797560  0.36938667  0.07103677     0.36200
C352        C  0.17159041  0.30917427  0.96137445     0.39800
C353        C  0.17546124  0.32913481  0.07993291     0.38900
C354        C  0.12691958  0.34071307  0.95575229     0.35900
C355        C  0.13508922  0.39951335  0.96851851     0.36500
C356        C  0.04663952  0.38654558  0.04850951     0.39800
N357        N  0.18400115  0.32542714  0.10559600    -0.38300
N358        N  0.13208980  0.38273874  0.09265966    -0.39900
N359        N  0.17941882  0.29825397  0.93867534    -0.37600
N360        N  0.11592690  0.34157144  0.93123028    -0.40000
N361        N  0.08185980  0.32741763  0.06220654    -0.39800
N362        N  0.02951513  0.38472816  0.06625262    -0.37400
N363        N  0.08505277  0.43505633  0.92662758    -0.38500
N364        N  0.15359173  0.40360157  0.95389050    -0.40100
C365        C  0.37720278  0.38053021  0.96561965    -0.05100
C366        C  0.36314776  0.37536053  0.99439064     0.09100
C367        C  0.36918388  0.38878216  0.02362537    -0.02400
C368        C  0.38984653  0.40629533  0.02443616    -0.00700
C369        C  0.40276729  0.41258485  0.99535234    -0.04300
C370        C  0.39663144  0.39960835  0.96595703     0.02700
C371        C  0.34311583  0.35458148  0.99479759     0.09500
C372        C  0.35412356  0.38454554  0.05290929     0.35400
C373        C  0.41035740  0.40590849  0.93617345     0.38900
C374        C  0.34733320  0.33150850  0.01297968    -0.04700
C375        C  0.32765562  0.31298842  0.01640654     0.02500
C376        C  0.30422998  0.31642729  0.99961998    -0.04300
C377        C  0.30070779  0.33871217  0.97959239    -0.00500
C378        C  0.31964390  0.35827728  0.97838101    -0.03100
C379        C  0.37188956  0.32706680  0.02864556     0.36200
C380        C  0.27749187  0.34161437  0.96045894     0.39800
C381        C  0.33154791  0.29044715  0.03740163     0.38900
C382        C  0.31458219  0.38260110  0.96128087     0.35900
C383        C  0.37197542  0.36600188  0.93587586     0.36500
C384        C  0.39871332  0.41677974  0.05543435     0.39800
N385        N  0.33477124  0.27237294  0.05391995    -0.38300
N386        N  0.39144965  0.32372323  0.04122287    -0.39900
N387        N  0.25882065  0.34387778  0.94552222    -0.37600
N388        N  0.31037408  0.40205106  0.94782890    -0.40000
N389        N  0.34206811  0.38117604  0.07622327    -0.39800
N390        N  0.40607460  0.42482637  0.08016142    -0.37400
N391        N  0.42129147  0.41107637  0.91247139    -0.38500
N392        N  0.36788887  0.35447390  0.91206877    -0.40100
C393        C  0.32720756  0.15054694  0.95769736    -0.05100
C394        C  0.34299205  0.14595001  0.98509345     0.09100
C395        C  0.33877630  0.16003012  0.01429770    -0.02400
C396        C  0.31831040  0.17787438  0.01655196    -0.00700
C397        C  0.30209572  0.18203699  0.98946807    -0.04300
C398        C  0.30683750  0.16868230  0.95983679     0.02700
C399        C  0.36314377  0.12512148  0.98432549     0.09500
C400        C  0.35565752  0.15613360  0.04201694     0.35400
C401        C  0.29103078  0.17400985  0.93152215     0.38900
C402        C  0.38763637  0.13032821  0.97159980    -0.04700
C403        C  0.40717615  0.11119927  0.97355016     0.02500
C404        C  0.40252590  0.08682977  0.98927292    -0.04300
C405        C  0.37773559  0.08200135  0.00225939    -0.00500
C406        C  0.35810470  0.10073294  0.99888088    -0.03100
C407        C  0.39268406  0.15556295  0.95670356     0.36200
C408        C  0.37231919  0.05836302  0.02064128     0.39800
C409        C  0.43181909  0.11680269  0.95887462     0.38900
C410        C  0.33251186  0.09503123  0.01067077     0.35900
C411        C  0.33199927  0.13660408  0.92742214     0.36500
C412        C  0.31392791  0.19207976  0.04678180     0.39800
N413        N  0.45138559  0.12165143  0.94714978    -0.38300
N414        N  0.39658107  0.17572000  0.94483539    -0.39900
N415        N  0.36766117  0.03968384  0.03544361    -0.37600
N416        N  0.31206334  0.09049863  0.01985956    -0.40000
N417        N  0.36923599  0.15299558  0.06399851    -0.39800
N418        N  0.31042836  0.20345115  0.07085829    -0.37400
N419        N  0.27848156  0.17842132  0.90889564    -0.38500
N420        N  0.33596601  0.12552572  0.90324919    -0.40100
C421        C  0.08540172  0.12883482  0.03258951    -0.05100
C422        C  0.11032713  0.12448805  0.02080194     0.09100
C423        C  0.11672219  0.10023131  0.00665520    -0.02400
C424        C  0.09774599  0.08111622  0.00176515    -0.00700
C425        C  0.07267433  0.08491107  0.01416719    -0.04300
C426        C  0.06695548  0.10875785  0.03061247     0.02700
C427        C  0.12963599  0.14593018  0.02081349     0.09500
C428        C  0.14289731  0.09533105  0.99634433     0.35400
C429        C  0.04231774  0.11288645  0.04599592     0.38900
C430        C  0.14304515  0.15239470  0.04962843    -0.04700
C431        C  0.16264148  0.17129256  0.04868195     0.02500
C432        C  0.16967549  0.18272160  0.01865465    -0.04300
C433        C  0.15628265  0.17620118  0.98985313    -0.00500
C434        C  0.13587636  0.15834348  0.99108889    -0.03100
C435        C  0.13714782  0.13904057  0.07992709     0.36200
C436        C  0.16358524  0.18789347  0.95897047     0.39800
C437        C  0.17558446  0.17905877  0.07848989     0.38900
C438        C  0.12138857  0.15245140  0.96172465     0.35900
C439        C  0.07852093  0.15429354  0.04577169     0.36500
C440        C  0.10384418  0.05882760  0.98136768     0.39800
N441        N  0.18583116  0.18542866  0.10227150    -0.38300
N442        N  0.13249351  0.12823776  0.10402336    -0.39900
N443        N  0.16950041  0.19716418  0.93433913    -0.37600
N444        N  0.10974922  0.14767952  0.93841050    -0.40000
N445        N  0.16384383  0.09167160  0.98839596    -0.39800
N446        N  0.10924907  0.04165327  0.96429734    -0.37400
N447        N  0.02282072  0.11663372  0.05850057    -0.38500
N448        N  0.07290668  0.17466410  0.05596849    -0.40100
C449        C  0.32222959  0.01951207  0.82560766    -0.05100
C450        C  0.34022746  0.49967694  0.81870445     0.09100
C451        C  0.33519428  0.48173162  0.79329115    -0.02400
C452        C  0.31163439  0.48257864  0.77625408    -0.00700
C453        C  0.29222601  0.50042515  0.78592270    -0.04300
C454        C  0.29838555  0.01988889  0.80942287     0.02700
C455        C  0.36316069  0.49631247  0.84046981     0.09500
C456        C  0.35403499  0.46183427  0.78537865     0.35400
C457        C  0.28067064  0.04111202  0.81611074     0.38900
C458        C  0.36022783  0.48342919  0.87056944    -0.04700
C459        C  0.38069124  0.48227232  0.89302603     0.02500
C460        C  0.40470020  0.49414387  0.88570969    -0.04300
C461        C  0.40812103  0.00500056  0.85404303    -0.00500
C462        C  0.38733272  0.00636521  0.83181574    -0.03100
C463        C  0.33583168  0.47135535  0.87843194     0.36200
C464        C  0.43280364  0.01512233  0.84409500     0.39800
C465        C  0.37664227  0.46825195  0.92337316     0.38900
C466        C  0.39065928  0.01844711  0.80009272     0.35900
C467        C  0.32814162  0.03936354  0.84987528     0.36500
C468        C  0.30807005  0.46532592  0.74854542     0.39800
N469        N  0.37262852  0.45705856  0.94736634    -0.38300
N470        N  0.31637756  0.46172213  0.88447997    -0.39900
N471        N  0.45254871  0.02295756  0.83591013    -0.37600
N472        N  0.39332491  0.02800816  0.77471978    -0.40000
N473        N  0.36903319  0.44591393  0.77909458    -0.39800
N474        N  0.30649192  0.45179188  0.72592748    -0.37400
N475        N  0.26683791  0.05827705  0.82154539    -0.38500
N476        N  0.33280140  0.05529854  0.86912012    -0.40100
C477        C  0.16104198  0.47599252  0.83001281    -0.05100
C478        C  0.14921859  0.49999443  0.83809315     0.09100
C479        C  0.16184489  0.02350222  0.83029800    -0.02400
C480        C  0.18525890  0.02307640  0.81290744    -0.00700
C481        C  0.19548018  0.49904161  0.80050085    -0.04300
C482        C  0.18456622  0.47552675  0.81290865     0.02700
C483        C  0.12564880  0.50036802  0.85934876     0.09500
C484        C  0.15104536  0.04824311  0.84116255     0.35400
C485        C  0.19870145  0.45110650  0.81197207     0.38900
C486        C  0.12794984  0.99468473  0.89280696    -0.04700
C487        C  0.10609584  0.99336509  0.91298242     0.02500
C488        C  0.08115824  0.49925106  0.90038409    -0.04300
C489        C  0.07928127  0.50619698  0.86672413    -0.00500
C490        C  0.10133102  0.50639179  0.84643740    -0.03100
C491        C  0.15323514  0.99059442  0.90669744     0.36200
C492        C  0.05496904  0.51396135  0.85265100     0.39800
C493        C  0.11003081  0.98541173  0.94668632     0.38900
C494        C  0.09914560  0.51320238  0.81216446     0.35900
C495        C  0.14925115  0.45161189  0.84021011     0.36500
C496        C  0.19964386  0.04729175  0.81095616     0.39800
N497        N  0.11350973  0.97919368  0.97350746    -0.38300
N498        N  0.17340426  0.98750152  0.91770063    -0.39900
N499        N  0.03567439  0.52022414  0.84116862    -0.37600
N500        N  0.09752584  0.51877289  0.78485211    -0.40000
N501        N  0.14239194  0.06796689  0.84974317    -0.39800
N502        N  0.21071783  0.06686642  0.80948484    -0.37400
N503        N  0.20971696  0.43143819  0.81203758    -0.38500
N504        N  0.13987705  0.43219750  0.84845119    -0.40100
C505        C  0.01658337  0.12318792  0.86709019    -0.05100
C506        C  0.49424272  0.13141846  0.85053324     0.09100
C507        C  0.47139242  0.11700234  0.85451222    -0.02400
C508        C  0.47077722  0.09487411  0.87528779    -0.00700
C509        C  0.49306787  0.08681489  0.89200546    -0.04300
C510        C  0.01600651  0.10099096  0.88770209     0.02700
C511        C  0.49511450  0.15492657  0.82831739     0.09500
C512        C  0.44842542  0.12521592  0.83754370     0.35400
C513        C  0.03902115  0.09276019  0.90468908     0.38900
C514        C  0.00069182  0.15167320  0.79490963    -0.04700
C515        C  0.00344335  0.17371018  0.77435950     0.02500
C516        C  0.50140345  0.19956652  0.78711820    -0.04300
C517        C  0.49446865  0.20266743  0.82037789    -0.00500
C518        C  0.49111454  0.18044628  0.84069948    -0.03100
C519        C  0.00368647  0.12545099  0.78168028     0.36200
C520        C  0.49138331  0.22856704  0.83431184     0.39800
C521        C  0.00745342  0.16943801  0.73972717     0.38900
C522        C  0.48351584  0.18376772  0.87451587     0.35900
C523        C  0.04016314  0.13775478  0.86310005     0.36500
C524        C  0.44692609  0.08108155  0.88074799     0.39800
N525        N  0.01051086  0.16544700  0.71218396    -0.38300
N526        N  0.00603348  0.10452798  0.77115675    -0.39900
N527        N  0.48857571  0.24896775  0.84615328    -0.37600
N528        N  0.47723620  0.18639364  0.90143136    -0.40000
N529        N  0.43010038  0.13179344  0.82396793    -0.39800
N530        N  0.42791946  0.07014679  0.88552737    -0.37400
N531        N  0.05735161  0.08615125  0.91824838    -0.38500
N532        N  0.05897847  0.14940055  0.85998757    -0.40100
C533        C  0.00553831  0.38767449  0.84124785    -0.05100
C534        C  0.49661286  0.36288886  0.85122627     0.09100
C535        C  0.48566397  0.36011751  0.88237094    -0.02400
C536        C  0.48350189  0.38185475  0.90357713    -0.00700
C537        C  0.49276236  0.40709476  0.89409818    -0.04300
C538        C  0.00395550  0.40957884  0.86256421     0.02700
C539        C  0.49923657  0.33919664  0.82954052     0.09500
C540        C  0.47689466  0.33445494  0.89279112     0.35400
C541        C  0.01521611  0.43417953  0.85234835     0.38900
C542        C  0.01961201  0.32148993  0.83440144    -0.04700
C543        C  0.02099813  0.29810633  0.81601156     0.02500
C544        C  0.50297193  0.29287082  0.79101128    -0.04300
C545        C  0.48192665  0.31003590  0.78720297    -0.00500
C546        C  0.47998327  0.33296291  0.80662399    -0.03100
C547        C  0.03903803  0.32721587  0.85870572     0.36200
C548        C  0.46202863  0.30422523  0.76371846     0.39800
C549        C  0.03969204  0.27834090  0.82480032     0.38900
C550        C  0.45794872  0.35005650  0.80350364     0.35900
C551        C  0.01686365  0.39046048  0.80911343     0.36500
C552        C  0.47173559  0.37748379  0.93523553     0.39800
N553        N  0.05400005  0.26227964  0.83281939    -0.38300
N554        N  0.05457747  0.33178556  0.87803063    -0.39900
N555        N  0.44555633  0.30003069  0.74558451    -0.37600
N556        N  0.44034192  0.36370283  0.80132031    -0.40000
N557        N  0.47010516  0.31393963  0.90102502    -0.39800
N558        N  0.46255197  0.37346481  0.96045306    -0.37400
N559        N  0.02437132  0.45372253  0.84416687    -0.38500
N560        N  0.02586582  0.39269513  0.78344923    -0.40100
C561        C  0.41702033  0.23104817  0.69727847    -0.05100
C562        C  0.41244405  0.24887023  0.67162587     0.09100
C563        C  0.43144272  0.26744209  0.66386467    -0.02400
C564        C  0.45508714  0.26768915  0.68084020    -0.00700
C565        C  0.46023331  0.24914776  0.70596636    -0.04300
C566        C  0.44066649  0.23109420  0.71425675     0.02700
C567        C  0.38839620  0.24697646  0.65123731     0.09500
C568        C  0.42668091  0.28613050  0.63787960     0.35400
C569        C  0.44480406  0.21158249  0.73931700     0.38900
C570        C  0.36848289  0.26560869  0.65446810    -0.04700
C571        C  0.34706675  0.26493445  0.63324086     0.02500
C572        C  0.34500836  0.24521569  0.60907662    -0.04300
C573        C  0.36422214  0.22570912  0.60715691    -0.00500
C574        C  0.38600519  0.22692214  0.62758371    -0.03100
C575        C  0.37026709  0.28583016  0.67925062     0.36200
C576        C  0.36136974  0.20391645  0.58466486     0.39800
C577        C  0.32777467  0.28532671  0.63519277     0.38900
C578        C  0.40645632  0.20795036  0.62353230     0.35900
C579        C  0.39738719  0.21222965  0.70589254     0.36500
C580        C  0.47376200  0.28763131  0.67272175     0.39800
N581        N  0.31237105  0.30159471  0.63654599    -0.38300
N582        N  0.37157827  0.30204732  0.69897160    -0.39900
N583        N  0.35919745  0.18622479  0.56717861    -0.37600
N584        N  0.42284961  0.19291850  0.62024989    -0.40000
N585        N  0.42260485  0.30099977  0.61721497    -0.39800
N586        N  0.48861974  0.30350615  0.66595970    -0.37400
N587        N  0.44711958  0.19572106  0.75923518    -0.38500
N588        N  0.38182655  0.19712654  0.71280334    -0.40100
C589        C  0.13154412  0.26616347  0.62518971    -0.05100
C590        C  0.12882641  0.24569278  0.64796890     0.09100
C591        C  0.14807269  0.22635755  0.65038075    -0.02400
C592        C  0.16958584  0.22709409  0.62944763    -0.00700
C593        C  0.17196084  0.24723111  0.60593554    -0.04300
C594        C  0.15304122  0.26702465  0.60441277     0.02700
C595        C  0.10534767  0.24441903  0.66900734     0.09500
C596        C  0.14544332  0.20546023  0.67407911     0.35400
C597        C  0.15608024  0.28886107  0.58216453     0.38900
C598        C  0.08341546  0.23126179  0.65790205    -0.04700
C599        C  0.06087102  0.23091347  0.67699640     0.02500
C600        C  0.05912971  0.24568058  0.70665191    -0.04300
C601        C  0.08266356  0.25588114  0.71935946    -0.00500
C602        C  0.10520778  0.25590894  0.70018479    -0.03100
C603        C  0.08425347  0.21770477  0.62670786     0.36200
C604        C  0.08517286  0.26445778  0.75292084     0.39800
C605        C  0.04038490  0.21374400  0.66651073     0.38900
C606        C  0.12868116  0.26733688  0.71278792     0.35900
C607        C  0.11201958  0.28629564  0.62300489     0.36500
C608        C  0.18864328  0.20649521  0.63129838     0.39800
N609        N  0.02423482  0.20006246  0.65743456    -0.38300
N610        N  0.08499632  0.20692738  0.60182932    -0.39900
N611        N  0.08851977  0.27162571  0.77939530    -0.37600
N612        N  0.14744311  0.27629320  0.72281150    -0.40000
N613        N  0.14332041  0.18880761  0.69301663    -0.39800
N614        N  0.20368837  0.18991369  0.63300981    -0.37400
N615        N  0.15857221  0.30649485  0.56477030    -0.38500
N616        N  0.09641812  0.30232947  0.62123206    -0.40100
C617        C  0.26031360  0.13925595  0.65956406    -0.05100
C618        C  0.25268616  0.11435870  0.64811002     0.09100
C619        C  0.24642174  0.11112828  0.61488642    -0.02400
C620        C  0.24626202  0.13275385  0.59362421    -0.00700
C621        C  0.25493102  0.15780288  0.60440325    -0.04300
C622        C  0.26206455  0.16071305  0.63778868     0.02700
C623        C  0.24993582  0.09146363  0.67086979     0.09500
C624        C  0.23999172  0.08523920  0.60247765     0.35400
C625        C  0.27157430  0.18552950  0.65010161     0.38900
C626        C  0.22558364  0.08036301  0.67591253    -0.04700
C627        C  0.22314938  0.05626730  0.69225059     0.02500
C628        C  0.24438895  0.04505909  0.70883393    -0.04300
C629        C  0.26872478  0.05707324  0.70506650    -0.00500
C630        C  0.27158217  0.07931903  0.68480734    -0.03100
C631        C  0.20291015  0.09379745  0.66404294     0.36200
C632        C  0.29102390  0.04743230  0.72224938     0.39800
C633        C  0.19901206  0.04236001  0.68992688     0.38900
C634        C  0.29689088  0.08961325  0.67799738     0.35900
C635        C  0.26637497  0.14277621  0.69388624     0.36500
C636        C  0.23601126  0.12877931  0.56102799     0.39800
N637        N  0.17983010  0.03120918  0.68766909    -0.38300
N638        N  0.18492693  0.10470335  0.65470096    -0.39900
N639        N  0.30948175  0.04054813  0.73527435    -0.37600
N640        N  0.31704453  0.09784192  0.67247361    -0.40000
N641        N  0.23481339  0.06461422  0.59274880    -0.39800
N642        N  0.22775801  0.12492806  0.53523914    -0.37400
N643        N  0.27914754  0.20527623  0.66010945    -0.38500
N644        N  0.27136629  0.14548072  0.72123198    -0.40100
C645        C  0.27429642  0.37999992  0.62571929    -0.05100
C646        C  0.25408639  0.38240601  0.64842428     0.09100
C647        C  0.23602654  0.36185086  0.65091529    -0.02400
C648        C  0.23764484  0.33965915  0.63017058    -0.00700
C649        C  0.25751482  0.33756341  0.60690120    -0.04300
C650        C  0.27599583  0.35777927  0.60515839     0.02700
C651        C  0.25177590  0.40655432  0.66963809     0.09500
C652        C  0.21547740  0.36366653  0.67460333     0.35400
C653        C  0.29721160  0.35565349  0.58255316     0.38900
C654        C  0.24476282  0.43099239  0.65594526    -0.04700
C655        C  0.24199034  0.45343501  0.67606586     0.02500
C656        C  0.24550740  0.45155293  0.71017604    -0.04300
C657        C  0.25299680  0.42725918  0.72376200    -0.00500
C658        C  0.25655853  0.40505999  0.70355882    -0.03100
C659        C  0.24009461  0.43299522  0.62110779     0.36200
C660        C  0.25832313  0.42537978  0.75846147     0.39800
C661        C  0.23505743  0.47833614  0.66161356     0.38900
C662        C  0.26557575  0.38069076  0.71763910     0.35900
C663        C  0.29345521  0.40046354  0.62344357     0.36500
C664        C  0.21808845  0.31960828  0.63181980     0.39800
N665        N  0.22964935  0.49808698  0.64963424    -0.38300
N666        N  0.23653732  0.43462303  0.59327920    -0.39900
N667        N  0.26313339  0.42391169  0.78599151    -0.37600
N668        N  0.27278169  0.36125126  0.72886875    -0.40000
N669        N  0.19921185  0.36491249  0.69371375    -0.39800
N670        N  0.20237020  0.30372786  0.63329362    -0.37400
N671        N  0.31438901  0.35434523  0.56484847    -0.38500
N672        N  0.30868513  0.41680362  0.62133735    -0.40100
C673        C  0.35990361  0.11696867  0.50621575    -0.05100
C674        C  0.38397600  0.12365709  0.49341033     0.09100
C675        C  0.38884646  0.14927674  0.48270277    -0.02400
C676        C  0.36932619  0.16816077  0.48349223    -0.00700
C677        C  0.34490595  0.16182385  0.49658445    -0.04300
C678        C  0.34042274  0.13594614  0.50811279     0.02700
C679        C  0.40442588  0.10361288  0.49123271     0.09500
C680        C  0.41422546  0.15627613  0.47122822     0.35400
C681        C  0.31601066  0.12846246  0.52217665     0.38900
C682        C  0.41085455  0.09259595  0.46067775    -0.04700
C683        C  0.43106814  0.07455293  0.45849572     0.02500
C684        C  0.44296428  0.06550764  0.48724198    -0.04300
C685        C  0.43606851  0.07609525  0.51791547    -0.00500
C686        C  0.41765132  0.09604281  0.51966447    -0.03100
C687        C  0.39649877  0.09965116  0.43166266     0.36200
C688        C  0.44825994  0.06676686  0.54755761     0.39800
C689        C  0.43997133  0.06560056  0.42681768     0.38900
C690        C  0.41276214  0.10932998  0.55042405     0.35900
C691        C  0.35536746  0.09047534  0.51771879     0.36500
C692        C  0.37462138  0.19375054  0.46968345     0.43600
N693        N  0.44732801  0.05856925  0.40161793    -0.38300
N694        N  0.38487607  0.10511615  0.40859319    -0.39900
N695        N  0.45798748  0.05933980  0.57119145    -0.37600
N696        N  0.40903890  0.12021870  0.57479323    -0.40000
N697        N  0.43446261  0.16191691  0.46224376    -0.39800
N698        N  0.37927582  0.21403964  0.45866376    -0.37400
N699        N  0.29659653  0.12212108  0.53317957    -0.38500
N700        N  0.35196567  0.06937973  0.52703798    -0.40100
C701        C  0.13358734  0.14579280  0.51983848    -0.05100
C702        C  0.13695615  0.12211308  0.50278713     0.09100
C703        C  0.15963459  0.11738337  0.48516362    -0.02400
C704        C  0.17845840  0.13696097  0.48312219    -0.00700
C705        C  0.17541998  0.16073190  0.50070915    -0.04300
C706        C  0.15309039  0.16466465  0.51979687     0.02700
C707        C  0.11580463  0.10281783  0.50154608     0.09500
C708        C  0.16330701  0.09243333  0.46870193     0.35400
C709        C  0.15005417  0.18772800  0.54016730     0.38900
C710        C  0.10107129  0.10058807  0.47282025    -0.04700
C711        C  0.08148544  0.08189740  0.47097010     0.02500
C712        C  0.07583342  0.06627973  0.49840082    -0.04300
C713        C  0.09009983  0.06903393  0.52749674    -0.00500
C714        C  0.11037239  0.08703864  0.52890090    -0.03100
C715        C  0.10607258  0.11768516  0.44527282     0.36200
C716        C  0.08400710  0.05313976  0.55579074     0.39800
C717        C  0.06745018  0.07836234  0.44070372     0.38900
C718        C  0.12578057  0.08920972  0.55827679     0.35900
C719        C  0.10970075  0.15099562  0.53679626     0.36500
C720        C  0.20023721  0.13287694  0.46169253     0.39800
N721        N  0.05625732  0.07549229  0.41657091    -0.38300
N722        N  0.11017900  0.13143244  0.42346250    -0.39900
N723        N  0.07912087  0.04038294  0.57826891    -0.37600
N724        N  0.13805821  0.09095649  0.58171151    -0.40000
N725        N  0.16614024  0.07248849  0.45569645    -0.39800
N726        N  0.21747489  0.12943989  0.44446581    -0.37400
N727        N  0.14700544  0.20584854  0.55671802    -0.38500
N728        N  0.09062644  0.15522148  0.55015517    -0.40100
C729        C  0.13035743  0.34782195  0.48101113    -0.05100
C730        C  0.13481576  0.37222012  0.49599299     0.09100
C731        C  0.15861591  0.37771767  0.51049339    -0.02400
C732        C  0.17766278  0.35835077  0.51149717    -0.00700
C733        C  0.17350741  0.33376741  0.49611866    -0.04300
C734        C  0.14990113  0.32895234  0.48002247     0.02700
C735        C  0.11434050  0.39228891  0.49650245     0.09500
C736        C  0.16346978  0.40343021  0.52442446     0.35400
C737        C  0.14582828  0.30532696  0.46091918     0.38900
C738        C  0.10187149  0.39835303  0.52613144    -0.04700
C739        C  0.08315473  0.41806681  0.52685424     0.02500
C740        C  0.07573871  0.43043121  0.49757065    -0.04300
C741        C  0.08780377  0.42388780  0.46779121    -0.00500
C742        C  0.10767282  0.40541934  0.46745935    -0.03100
C743        C  0.10835927  0.38427008  0.55577518     0.36200
C744        C  0.08025111  0.43678932  0.43771943     0.39800
C745        C  0.07164426  0.42579746  0.55765186     0.38900
C746        C  0.12162196  0.40028127  0.43745467     0.35900
C747        C  0.10555561  0.34218381  0.46660081     0.36500
C748        C  0.20114119  0.36385888  0.52919965     0.39800
N749        N  0.06250107  0.43201413  0.58221998    -0.38300
N750        N  0.11364827  0.37297582  0.57931523    -0.39900
N751        N  0.07433553  0.44731749  0.41387304    -0.37600
N752        N  0.13281627  0.39622778  0.41358278    -0.40000
N753        N  0.16733973  0.42391199  0.53552386    -0.39800
N754        N  0.21978573  0.36853037  0.54329524    -0.37400
N755        N  0.14213853  0.28679793  0.44529550    -0.38500
N756        N  0.08578458  0.33776245  0.45513306    -0.40100
C757        C  0.38574517  0.35112501  0.51781820    -0.05100
C758        C  0.38220502  0.37383271  0.49889410     0.09100
C759        C  0.35893716  0.37811108  0.48248984    -0.02400
C760        C  0.33944859  0.35920005  0.48387330    -0.00700
C761        C  0.34297864  0.33603615  0.50247900    -0.04300
C762        C  0.36596160  0.33259319  0.52037995     0.02700
C763        C  0.40304283  0.39346964  0.49629073     0.09500
C764        C  0.35524801  0.40194661  0.46378408     0.35400
C765        C  0.36910345  0.31051142  0.54232999     0.38900
C766        C  0.41995017  0.39269658  0.46947967    -0.04700
C767        C  0.43983637  0.41115496  0.46717345     0.02500
C768        C  0.44253606  0.43066408  0.49145459    -0.04300
C769        C  0.42508668  0.43180341  0.51779167    -0.00500
C770        C  0.40543803  0.41315292  0.52025448    -0.03100
C771        C  0.41643547  0.37321438  0.44400523     0.36200
C772        C  0.42713673  0.45246075  0.54206474     0.39800
C773        C  0.45739355  0.41022308  0.43977238     0.38900
C774        C  0.38732906  0.41444591  0.54706816     0.35900
C775        C  0.40997605  0.34666369  0.53420267     0.36500
C776        C  0.31613796  0.36364224  0.46539557     0.39800
N777        N  0.47151525  0.40937293  0.41803043    -0.38300
N778        N  0.41333658  0.35778131  0.42363601    -0.39900
N779        N  0.42865384  0.46918761  0.56109130    -0.37600
N780        N  0.37281074  0.41549030  0.56836800    -0.40000
N781        N  0.35230999  0.42094871  0.44888315    -0.39800
N782        N  0.29759179  0.36755545  0.45074727    -0.37400
N783        N  0.37167089  0.29302455  0.55997620    -0.38500
N784        N  0.42936304  0.34298859  0.54706273    -0.40100
C785        C  0.12963370  0.23621743  0.37536422    -0.05100
C786        C  0.12932009  0.25444977  0.34956549     0.09100
C787        C  0.15097050  0.27039146  0.34421646    -0.02400
C788        C  0.17250422  0.26865892  0.36512740    -0.00700
C789        C  0.17298836  0.25018873  0.39088058    -0.04300
C790        C  0.15152546  0.23356114  0.39528859     0.02700
C791        C  0.10673623  0.25541730  0.32678810     0.09500
C792        C  0.15104911  0.28852882  0.31702260     0.35400
C793        C  0.15208836  0.21302930  0.41973801     0.38900
C794        C  0.08740903  0.27438624  0.33056730    -0.04700
C795        C  0.06518863  0.27359107  0.31072727     0.02500
C796        C  0.06175372  0.25344519  0.28675928    -0.04300
C797        C  0.08351034  0.23733295  0.27990328    -0.00500
C798        C  0.10498114  0.23735372  0.30094906    -0.03100
C799        C  0.09052986  0.29482772  0.35492658     0.36200
C800        C  0.08627209  0.22323343  0.24943536     0.39800
C801        C  0.04637272  0.29431814  0.31447333     0.38900
C802        C  0.12584011  0.21899404  0.29561207     0.35900
C803        C  0.10721205  0.22024957  0.38156508     0.36500
C804        C  0.19371065  0.28653427  0.36066540     0.39800
N805        N  0.03156512  0.31103758  0.31735717    -0.38300
N806        N  0.09322040  0.31123592  0.37417367    -0.39900
N807        N  0.08971691  0.21172299  0.22545304    -0.37600
N808        N  0.14247809  0.20437653  0.29153083    -0.40000
N809        N  0.15108214  0.30290660  0.29521000    -0.39800
N810        N  0.21057507  0.30086323  0.35691919    -0.37400
N811        N  0.15236662  0.19646404  0.43897512    -0.38500
N812        N  0.08928419  0.20764009  0.38669810    -0.40100
C813        C  0.37267249  0.23870641  0.34463926    -0.05100
C814        C  0.39544380  0.25046955  0.35609278     0.09100
C815        C  0.39540074  0.26282084  0.38687478    -0.02400
C816        C  0.37276720  0.26415686  0.40559181    -0.00700
C817        C  0.35006679  0.25109312  0.39528446    -0.04300
C818        C  0.35028867  0.23843506  0.36434421     0.02700
C819        C  0.41952904  0.25027184  0.33576584     0.09500
C820        C  0.41896200  0.27389501  0.39967840     0.35400
C821        C  0.32794181  0.22433688  0.35297237     0.38900
C822        C  0.42873876  0.27375240  0.32173070    -0.04700
C823        C  0.45216399  0.27396676  0.30452809     0.02500
C824        C  0.46531760  0.25032768  0.29834641    -0.04300
C825        C  0.45695473  0.22714430  0.31374376    -0.00500
C826        C  0.43419892  0.22710734  0.33243535    -0.03100
C827        C  0.41410741  0.29776550  0.32502276     0.36200
C828        C  0.47222819  0.20348681  0.31095085     0.39800
C829        C  0.46359832  0.29871616  0.29517697     0.38900
C830        C  0.42619647  0.20336825  0.34885889     0.35900
C831        C  0.37241975  0.22686800  0.31241073     0.36500
C832        C  0.37311823  0.27990273  0.43510590     0.39800
N833        N  0.47279914  0.31849160  0.28799670    -0.38300
N834        N  0.40241012  0.31692279  0.32755426    -0.39900
N835        N  0.48462189  0.18478598  0.30849192    -0.37600
N836        N  0.41989467  0.18439851  0.36200118    -0.40000
N837        N  0.43771616  0.28264143  0.41000634    -0.39800
N838        N  0.37409850  0.29268704  0.45841883    -0.37400
N839        N  0.31023382  0.21295492  0.34367570    -0.38500
N840        N  0.37248569  0.21755812  0.28660825    -0.40100
C841        C  0.27655816  0.36769554  0.35230080    -0.05100
C842        C  0.25453178  0.38381726  0.35218730     0.09100
C843        C  0.23378393  0.37737316  0.37266677    -0.02400
C844        C  0.23484159  0.35488918  0.39264589    -0.00700
C845        C  0.25686782  0.33876474  0.39300889    -0.04300
C846        C  0.27773743  0.34524854  0.37261794     0.02700
C847        C  0.25250855  0.40699567  0.32955136     0.09500
C848        C  0.21126708  0.39402428  0.37327109     0.35400
C849        C  0.30067199  0.32925542  0.37326023     0.38900
C850        C  0.24608762  0.40317275  0.29642656    -0.04700
C851        C  0.24219441  0.42487138  0.27556358     0.02500
C852        C  0.24438415  0.45091689  0.28769321    -0.04300
C853        C  0.25149781  0.45458498  0.32078252    -0.00500
C854        C  0.25556371  0.43276964  0.34149065    -0.03100
C855        C  0.24302262  0.37671860  0.28398526     0.36200
C856        C  0.25369906  0.48072638  0.33428371     0.39800
C857        C  0.23662730  0.42013799  0.24131527     0.38900
C858        C  0.26245604  0.43682468  0.37544456     0.35900
C859        C  0.29816718  0.37463895  0.33193326     0.36500
C860        C  0.21263340  0.34776517  0.41177522     0.39800
N861        N  0.23212460  0.41622823  0.21405277    -0.38300
N862        N  0.24063767  0.35555916  0.27425872    -0.39900
N863        N  0.25573133  0.50134477  0.34576240    -0.37600
N864        N  0.26789022  0.44010394  0.40255100    -0.40000
N865        N  0.19340363  0.40742482  0.37399592    -0.39800
N866        N  0.19451624  0.34212409  0.42630479    -0.37400
N867        N  0.31895811  0.31645819  0.37386468    -0.38500
N868        N  0.31532068  0.38041783  0.31561933    -0.40100
C869        C  0.27590431  0.11643315  0.37240114    -0.05100
C870        C  0.25697515  0.11568997  0.34783869     0.09100
C871        C  0.24106303  0.13778052  0.34317565    -0.02400
C872        C  0.24282755  0.15965013  0.36436356    -0.00700
C873        C  0.26122397  0.16005085  0.38972479    -0.04300
C874        C  0.27828205  0.13860981  0.39285427     0.02700
C875        C  0.25293735  0.09109593  0.32810593     0.09500
C876        C  0.22270765  0.13787952  0.31662157     0.35400
C877        C  0.29870566  0.13937118  0.41676267     0.38900
C878        C  0.23175042  0.07483477  0.33459335    -0.04700
C879        C  0.22744430  0.05204483  0.31568703     0.02500
C880        C  0.24494012  0.04449096  0.29087441    -0.04300
C881        C  0.26749209  0.05954224  0.28678142    -0.00500
C882        C  0.27081884  0.08329921  0.30417982    -0.03100
C883        C  0.21459394  0.08141393  0.36125730     0.36200
C884        C  0.28799666  0.05058899  0.26584482     0.39800
C885        C  0.20557607  0.03565831  0.32309060     0.38900
C886        C  0.29259703  0.09998770  0.29723290     0.35900
C887        C  0.29270626  0.09408648  0.37702090     0.36500
C888        C  0.22470662  0.18103117  0.36112738     0.39800
N889        N  0.18817196  0.02266919  0.32947510    -0.38300
N890        N  0.20109198  0.08672254  0.38267716    -0.39900
N891        N  0.30549040  0.04406407  0.25055198    -0.37600
N892        N  0.30990339  0.11337470  0.29170407    -0.40000
N893        N  0.20814993  0.13802234  0.29532187    -0.39800
N894        N  0.21015473  0.19801296  0.35863518    -0.37400
N895        N  0.31531100  0.13960819  0.43541964    -0.38500
N896        N  0.30616603  0.07629691  0.38052760    -0.40100
O897        O  0.26140904  0.70565975  0.40455539    -0.86100
O898        O  0.25575129  0.70407898  0.59125611    -0.86200
O899        O  0.30098689  0.67441223  0.49603004    -0.87900
O900        O  0.21888652  0.67403559  0.49899016    -0.86700
O901        O  0.18763763  0.70539020  0.49823395    -0.86300
O902        O  0.33136461  0.70619949  0.50081118    -0.87600
O903        O  0.25964296  0.67394899  0.55016328    -0.86100
O904        O  0.26074053  0.67434999  0.44479855    -0.85700
Zr905      Zr  0.25988638  0.69613162  0.49777387     2.84300
O906        O  0.23380748  0.72151505  0.53168537    -1.07700
O907        O  0.28591796  0.72264377  0.46546789    -1.08400
C908        C  0.26128606  0.68156303  0.41457762     1.07000
C909        C  0.25692060  0.68018977  0.58052185     1.07000
C910        C  0.32438090  0.68210503  0.49797378     1.10000
C911        C  0.19530631  0.68140424  0.49913619     1.07700
H912        H  0.29532572  0.71041187  0.54643631     0.33300
O913        O  0.28472631  0.72172089  0.53300643    -1.28600
H914        H  0.22377926  0.71113065  0.45029597     0.33000
O915        O  0.23442818  0.72219439  0.46402569    -1.30300
O916        O  0.25789419  0.79164809  0.59277963    -0.86100
O917        O  0.25996089  0.79286454  0.40578973    -0.87600
O918        O  0.33145198  0.74675281  0.55385041    -0.86100
O919        O  0.18674985  0.74740080  0.55119220    -0.86200
O920        O  0.18759832  0.74899646  0.44544203    -0.85900
O921        O  0.33286916  0.74828641  0.44881358    -0.85700
O922        O  0.29953818  0.82264537  0.50215532    -0.86100
O923        O  0.21714303  0.82100781  0.49630213    -0.85600
O924        O  0.33075745  0.79123696  0.50227095    -0.86600
O925        O  0.18643468  0.78927305  0.49836108    -0.85800
O926        O  0.30061134  0.74669751  0.59385748    -0.86200
O927        O  0.30416908  0.75003286  0.40653773    -0.85900
O928        O  0.21797379  0.74985561  0.40489214    -0.85500
O929        O  0.21646631  0.74693434  0.59255689    -0.86000
O930        O  0.25800801  0.82267762  0.55217438    -0.86200
O931        O  0.25805689  0.82320484  0.44731953    -0.87600
Zr932      Zr  0.25860099  0.74789705  0.56652929     2.83100
Zr933      Zr  0.26066774  0.74901014  0.43120676     2.83500
Zr934      Zr  0.31037741  0.74854159  0.50070225     2.84100
Zr935      Zr  0.20849935  0.74771622  0.49830373     2.83400
Zr936      Zr  0.25881586  0.80044137  0.49959813     2.84200
O937        O  0.23411545  0.77424045  0.46529567    -1.08200
O938        O  0.28438764  0.77466637  0.53376228    -1.07700
C939        C  0.25786354  0.81570480  0.58246644     1.07000
C940        C  0.25856737  0.81668083  0.41682307     1.09600
C941        C  0.32419826  0.74622291  0.58402766     1.07200
C942        C  0.19322985  0.74705107  0.58169245     1.07500
C943        C  0.19444469  0.74965676  0.41517385     1.07100
C944        C  0.32736313  0.74960371  0.41812177     1.06700
C945        C  0.32309724  0.81527088  0.50250295     1.07100
C946        C  0.19368547  0.81332229  0.49688097     1.06600
H947        H  0.29647203  0.78643217  0.45359247     0.33300
O948        O  0.28551743  0.77505798  0.46642226    -1.29300
H949        H  0.22186748  0.78524027  0.54596061     0.33300
O950        O  0.23297365  0.77428406  0.53272970    -1.30600
N951        N  0.47081846  0.49800143  0.48762456    -0.36200
N952        N  0.00952875  0.95783956  0.49278565    -0.56800
N953        N  0.04840188  0.49851440  0.49852774    -0.36200
N954        N  0.00970677  0.53856492  0.48957396    -0.56800
C955        C  0.45643858  0.97653092  0.48176264     0.27400
C956        C  0.45629811  0.51912044  0.48056168     0.27400
C957        C  0.06347163  0.97721708  0.49492518     0.27400
C958        C  0.06338275  0.51971271  0.49391200     0.27400
C959        C  0.48869514  0.94244858  0.49578303     0.36000
C960        C  0.02990656  0.94262817  0.49969266     0.36000
C961        C  0.48886964  0.55412630  0.48994959     0.36000
C962        C  0.02987262  0.55434021  0.49541169     0.36000
C963        C  0.43247949  0.98407668  0.47070656    -0.21500
C964        C  0.43227161  0.51095237  0.47034330    -0.21500
C965        C  0.08847551  0.98507278  0.48903835    -0.21500
C966        C  0.08835886  0.51186674  0.48813056    -0.21500
C967        C  0.49587709  0.91724470  0.50433216    -0.22500
C968        C  0.02203448  0.91725581  0.50633068    -0.22500
C969        C  0.49594896  0.58002739  0.49483337    -0.22500
C970        C  0.02194181  0.58012416  0.49855329    -0.22500
C971        C  0.46338247  0.95047745  0.48923247    -0.17900
C972        C  0.46349718  0.54550616  0.48546128    -0.17900
C973        C  0.05553831  0.54605498  0.49622559    -0.17900
C974        C  0.05560250  0.95088229  0.49802452    -0.17900
H975        H  0.41648852  0.97153502  0.46460586     0.15000
H976        H  0.41602368  0.52298975  0.46383643     0.15000
H977        H  0.10521911  0.97286700  0.48582470     0.15000
H978        H  0.10486867  0.52417186  0.48388649     0.15000
H979        H  0.48362262  0.90046103  0.50814554     0.13300
H980        H  0.03382926  0.90043222  0.51194845     0.13300
H981        H  0.48369833  0.59712026  0.49566292     0.13300
H982        H  0.03366345  0.59725603  0.50280302     0.13300
H983        H  0.48799748  0.49837711  0.50016635     0.26600
H984        H  0.02976425  0.49862680  0.50710280     0.26600
O985        O  0.49151539  0.95387145  0.90678756    -0.86100
O986        O  0.48034191  0.95501537  0.09262617    -0.86200
O987        O  0.02676826  0.92326111  0.00268553    -0.87900
O988        O  0.44598182  0.92485426  0.99642222    -0.86700
O989        O  0.41516837  0.95689631  0.99591997    -0.86300
O990        O  0.05823996  0.95448440  0.00337606    -0.87600
O991        O  0.48371024  0.92434887  0.05202627    -0.86100
O992        O  0.49096150  0.92411241  0.94827163    -0.85700
Zr993      Zr  0.48684112  0.94664899  0.00004807     2.84300
O994        O  0.45965800  0.97295027  0.03126144    -1.07700
O995        O  0.01464404  0.97183141  0.96851071    -1.08400
C996        C  0.49168859  0.92998795  0.91773046     1.07000
C997        C  0.48103599  0.93096563  0.08222879     1.07000
C998        C  0.05029322  0.93048560  0.00325213     1.10000
C999        C  0.42265284  0.93281435  0.99583947     1.07700
H1000       H  0.02097871  0.96068313  0.05019929     0.33300
O1001       O  0.01106917  0.97206520  0.03599904    -1.28600
H1002       H  0.45282538  0.96115637  0.95032960     0.33000
O1003       O  0.46297671  0.97246137  0.96433538    -1.30300
O1004       O  0.48196081  0.54247474  0.09342634    -0.86100
O1005       O  0.49144459  0.54134000  0.90615497    -0.87600
O1006       O  0.05746724  0.99609672  0.05859935    -0.86100
O1007       O  0.41184884  0.99977500  0.04661514    -0.86200
O1008       O  0.41716367  0.99802582  0.94148343    -0.85900
O1009       O  0.06228326  0.00017467  0.95363833    -0.85700
O1010       O  0.02934077  0.57213917  0.00511452    -0.86100
O1011       O  0.44651339  0.57378704  0.99522413    -0.85600
O1012       O  0.05970460  0.54011235  0.01059441    -0.86600
O1013       O  0.41583651  0.54213522  0.99085677    -0.85800
O1014       O  0.02517309  0.99798876  0.09677015    -0.86200
O1015       O  0.03498314  0.49728566  0.91024952    -0.85900
O1016       O  0.44915096  0.49596613  0.90333259    -0.85500
O1017       O  0.44002009  0.99767201  0.08941053    -0.86000
O1018       O  0.48485387  0.57319540  0.05286965    -0.86200
O1019       O  0.49109585  0.57264255  0.94677911    -0.87600
Zr1020     Zr  0.48377638  0.99880444  0.06728790     2.83100
Zr1021     Zr  0.49075036  0.99792611  0.93241484     2.83500
Zr1022     Zr  0.03834512  0.99795204  0.00441525     2.84100
Zr1023     Zr  0.43618733  0.99939767  0.99566114     2.83400
Zr1024     Zr  0.48764540  0.55119155  0.99982582     2.84200
O1025       O  0.46376737  0.52496864  0.96404825    -1.08200
O1026       O  0.01124202  0.52469841  0.03545998    -1.07700
C1027       C  0.48278426  0.56653693  0.08324328     1.07000
C1028       C  0.49179561  0.56537096  0.91653229     1.09600
C1029       C  0.04908644  0.99675843  0.08825432     1.07200
C1030       C  0.41704940  0.99849444  0.07745682     1.07500
C1031       C  0.42515909  0.49616503  0.91172117     1.07100
C1032       C  0.05783966  0.49886265  0.92268531     1.06700
C1033       C  0.05259161  0.56434924  0.00964261     1.07100
C1034       C  0.42304016  0.56630262  0.99187309     1.06600
H1035       H  0.02622566  0.53531344  0.95633126     0.33300
O1036       O  0.01469949  0.52435323  0.96861023    -1.29300
H1037       H  0.44857237  0.53671513  0.04374190     0.33300
O1038       O  0.46004430  0.52551775  0.03140021    -1.30600
N1039       N  0.27511249  0.74907804  0.00006966    -0.36200
N1040       N  0.23811569  0.78970727  0.01450491    -0.56800
N1041       N  0.19883462  0.75001986  0.02264742    -0.36200
N1042       N  0.23581933  0.70937303  0.00470698    -0.56800
C1043       C  0.28846578  0.77069436  0.99169039     0.27400
C1044       C  0.28758710  0.72826049  0.98725577     0.27400
C1045       C  0.18406919  0.77181524  0.02276773     0.27400
C1046       C  0.18299384  0.72925663  0.01965437     0.27400
C1047       C  0.25964989  0.80417424  0.01620235     0.36000
C1048       C  0.21882197  0.80520543  0.02487197     0.36000
C1049       C  0.25626995  0.69339737  0.00095066     0.36000
C1050       C  0.21575697  0.69385705  0.01217483     0.36000
C1051       C  0.30956425  0.76347921  0.97314183    -0.21500
C1052       C  0.30920422  0.73665224  0.97077012    -0.21500
C1053       C  0.15848702  0.76467253  0.02135170    -0.21500
C1054       C  0.15780798  0.73787564  0.01951681    -0.21500
C1055       C  0.25406114  0.82888698  0.02845990    -0.22500
C1056       C  0.22806656  0.82977713  0.03301457    -0.22500
C1057       C  0.24907971  0.66754442  0.00532534    -0.22500
C1058       C  0.22334705  0.66781296  0.01219564    -0.22500
C1059       C  0.28347558  0.79643805  0.00290957    -0.17900
C1060       C  0.28107707  0.70176789  0.99214049    -0.17900
C1061       C  0.19040688  0.70265249  0.01742950    -0.17900
C1062       C  0.19279160  0.79805107  0.02438927    -0.17900
H1063       H  0.32416667  0.77616498  0.96317784     0.15000
H1064       H  0.32336064  0.72467178  0.95850940     0.15000
H1065       H  0.14192335  0.77741090  0.02166915     0.15000
H1066       H  0.14063007  0.72613541  0.01792887     0.15000
H1067       H  0.26712242  0.84503913  0.03222683     0.13300
H1068       H  0.21729227  0.84665752  0.04118498     0.13300
H1069       H  0.26103000  0.65028856  0.00329188     0.13300
H1070       H  0.21157133  0.65077296  0.01666988     0.13300
H1071       H  0.26060770  0.74823600  0.01734413     0.26600
H1072       H  0.21838507  0.74914854  0.02644381     0.26600
C1073       C  0.03531364  0.75060367  0.26904794     0.86900
C1074       C  0.03011693  0.72583490  0.24806618    -0.53300
C1075       C  0.50706473  0.72539385  0.23219438     0.09800
C1076       C  0.49029183  0.74941630  0.24037859     0.20800
C1077       C  0.02979155  0.77385273  0.24626451    -0.54100
C1078       C  0.50656175  0.77351135  0.23051064     0.09900
C1079       C  0.51264039  0.75042864  0.29285566    -0.53600
C1080       C  0.48919728  0.75023653  0.27832703     0.10500
H1081       H  0.04219224  0.70869719  0.24733304     0.15000
H1082       H  0.47150342  0.74820369  0.22829771     0.00800
H1083       H  0.04325379  0.78988572  0.24392413     0.15300
H1084       H  0.51487872  0.75049256  0.31923976     0.15100
C1085       C  0.21195412  0.99940096  0.22725616     0.86900
C1086       C  0.21563829  0.97484849  0.24863769    -0.53300
C1087       C  0.23786087  0.97401368  0.26623460     0.09800
C1088       C  0.25520088  0.99818391  0.26024302     0.20800
C1089       C  0.21586827  0.52268040  0.25047971    -0.54100
C1090       C  0.23827331  0.52242397  0.26780119     0.09900
C1091       C  0.23634232  0.99875708  0.20583177    -0.53600
C1092       C  0.25890446  0.99868435  0.22281297     0.10500
H1093       H  0.20208805  0.95879947  0.24912453     0.15000
H1094       H  0.27346175  0.99771368  0.27405769     0.00800
H1095       H  0.20201690  0.53846926  0.25261924     0.15300
H1096       H  0.23621377  0.99727753  0.17942669     0.15100
C1097       C  0.03339654  0.74733666  0.72609338     0.86900
C1098       C  0.02992554  0.77124996  0.74868672    -0.53300
C1099       C  0.50812746  0.77113324  0.76708683     0.09800
C1100       C  0.49064733  0.74727039  0.76006830     0.20800
C1101       C  0.03006269  0.72349286  0.74829816    -0.54100
C1102       C  0.50782734  0.72282377  0.76582835     0.09900
C1103       C  0.50866200  0.74845147  0.70528748    -0.53600
C1104       C  0.48618815  0.74813691  0.72257559     0.10500
H1105       H  0.04284743  0.78782960  0.74924752     0.15000
H1106       H  0.47273093  0.74739462  0.77457665     0.00800
H1107       H  0.04434189  0.70806193  0.74977543     0.15300
H1108       H  0.50880884  0.75008562  0.67891116     0.15100
C1109       C  0.21846186  0.99847290  0.77607539     0.86900
C1110       C  0.21966412  0.52195622  0.75262022    -0.53300
C1111       C  0.24026607  0.52251229  0.73204637     0.09800
C1112       C  0.25796313  0.99842625  0.73624338     0.20800
C1113       C  0.21941702  0.97494249  0.75229341    -0.54100
C1114       C  0.24023091  0.97445176  0.73214926     0.09900
C1115       C  0.24454156  0.99830867  0.79330249    -0.53600
C1116       C  0.26534063  0.99858118  0.77285752     0.10500
H1117       H  0.20510965  0.53701498  0.75193828     0.15000
H1118       H  0.27443084  0.99817249  0.71921012     0.00800
H1119       H  0.20485122  0.95987884  0.75092718     0.15300
H1120       H  0.24635372  0.99834063  0.81973256     0.15100
C1121       C  0.10382932  0.97403180  0.14293765    -0.05100
C1122       C  0.11330932  0.99815726  0.15482597     0.09100
C1123       C  0.09999877  0.52152500  0.14716234    -0.02400
C1124       C  0.07838110  0.52090411  0.12638696    -0.00700
C1125       C  0.06912012  0.99683432  0.11416927    -0.04300
C1126       C  0.08160358  0.97334389  0.12317115     0.02700
C1127       C  0.13807557  0.99919625  0.17381355     0.09500
C1128       C  0.10904364  0.54638039  0.15988055     0.35400
C1129       C  0.07183925  0.94842831  0.11167115     0.38900
C1130       C  0.16012351  0.01004399  0.15948854    -0.04700
C1131       C  0.18303825  0.01257695  0.17760011     0.02500
C1132       C  0.18562264  0.00087271  0.20906590    -0.04300
C1133       C  0.16253377  0.99211443  0.22429139    -0.00500
C1134       C  0.13927939  0.99070627  0.20650581    -0.03100
C1135       C  0.15927364  0.01852576  0.12565480     0.36200
C1136       C  0.16181944  0.98588192  0.25883915     0.39800
C1137       C  0.20223790  0.03017602  0.16480737     0.38900
C1138       C  0.11644139  0.98031642  0.22187458     0.35900
C1139       C  0.11762362  0.95001646  0.14993650     0.36500
C1140       C  0.06647895  0.54520951  0.11607238     0.39800
N1141       N  0.21677001  0.04467931  0.15364654    -0.38300
N1142       N  0.15857174  0.02510361  0.09863325    -0.39900
N1143       N  0.16099545  0.98059475  0.28629911    -0.37600
N1144       N  0.09829810  0.97176396  0.23400439    -0.40000
N1145       N  0.11632713  0.56623289  0.16989177    -0.39800
N1146       N  0.05709854  0.56457272  0.10755749    -0.37400
N1147       N  0.06410825  0.92838805  0.10291456    -0.38500
N1148       N  0.12876233  0.93094448  0.15555644    -0.40100
C1149       C  0.31261731  0.52054255  0.16567825    -0.05100
C1150       C  0.32951209  0.99904188  0.16704780     0.09100
C1151       C  0.32448485  0.97840868  0.18897238    -0.02400
C1152       C  0.30220401  0.97881364  0.20861627    -0.00700
C1153       C  0.28425903  0.99945991  0.20558246    -0.04300
C1154       C  0.29013591  0.52077737  0.18478064     0.02700
C1155       C  0.35237149  0.99802462  0.14482937     0.09500
C1156       C  0.34225002  0.95662466  0.19102135     0.35400
C1157       C  0.27430652  0.54411735  0.18525784     0.38900
C1158       C  0.37525132  0.51088767  0.15338010    -0.04700
C1159       C  0.39638168  0.51085242  0.13175639     0.02500
C1160       C  0.39478329  0.99808084  0.10089733    -0.04300
C1161       C  0.37139077  0.98547530  0.09239805    -0.00500
C1162       C  0.35057926  0.98522214  0.11443008    -0.03100
C1163       C  0.37673150  0.52475655  0.18429099     0.36200
C1164       C  0.36804528  0.97300993  0.06081930     0.39800
C1165       C  0.41919853  0.52526127  0.14091455     0.38900
C1166       C  0.32689995  0.97215062  0.10559210     0.35900
C1167       C  0.31857057  0.54256808  0.14469138     0.36500
C1168       C  0.29821928  0.95801131  0.23201103     0.39800
N1169       N  0.43730883  0.53682342  0.14841835    -0.38300
N1170       N  0.37774028  0.53593050  0.20888380    -0.39900
N1171       N  0.36462840  0.96331669  0.03561481    -0.37600
N1172       N  0.30799400  0.96176353  0.09865111    -0.40000
N1173       N  0.35644138  0.93925218  0.19252226    -0.39800
N1174       N  0.29615933  0.94127632  0.25082150    -0.37400
N1175       N  0.26238504  0.56320892  0.18636770    -0.38500
N1176       N  0.32350459  0.56015435  0.12806796    -0.40100
C1177       C  0.46793408  0.82794423  0.18645599    -0.05100
C1178       C  0.48728234  0.84021302  0.16816920     0.09100
C1179       C  0.01170477  0.82869036  0.16671982    -0.02400
C1180       C  0.01747437  0.80628391  0.18551251    -0.00700
C1181       C  0.49877732  0.79491541  0.20654101    -0.04300
C1182       C  0.47334690  0.80513093  0.20491607     0.02700
C1183       C  0.48188139  0.86442707  0.14849823     0.09500
C1184       C  0.03085489  0.83969906  0.14503224     0.35400
C1185       C  0.45205174  0.79237986  0.22086859     0.38900
C1186       C  0.49081476  0.88905762  0.15918557    -0.04700
C1187       C  0.48987462  0.91104642  0.13821126     0.02500
C1188       C  0.47922972  0.90878721  0.10638677    -0.04300
C1189       C  0.96855023  0.88420802  0.09686403    -0.00500
C1190       C  0.97018241  0.86224908  0.11767541    -0.03100
C1191       C  0.50156056  0.89152984  0.19171465     0.36200
C1192       C  0.95615915  0.88081925  0.06541216     0.39800
C1193       C  0.50138871  0.93541435  0.14899931     0.38900
C1194       C  0.96052220  0.83698201  0.10696141     0.35900
C1195       C  0.44220640  0.83871051  0.18583141     0.36500
C1196       C  0.04260519  0.79456073  0.18166956     0.39800
N1197       N  0.51065763  0.95479571  0.15768306    -0.38300
N1198       N  0.51001268  0.89345580  0.21773792    -0.39900
N1199       N  0.94640368  0.87734100  0.04040319    -0.37600
N1200       N  0.95280708  0.81681403  0.09859882    -0.40000
N1201       N  0.04600929  0.84842426  0.12758544    -0.39800
N1202       N  0.06287385  0.78575566  0.17857851    -0.37400
N1203       N  0.43423240  0.78262451  0.23238580    -0.38500
N1204       N  0.42164328  0.84711959  0.18515154    -0.40100
C1205       C  0.01375200  0.67201450  0.16647437    -0.05100
C1206       C  0.49114823  0.65738045  0.17052905     0.09100
C1207       C  0.47253592  0.66627627  0.19291152    -0.02400
C1208       C  0.47664967  0.68935859  0.21157191    -0.00700
C1209       C  0.50004352  0.70332175  0.20900742    -0.04300
C1210       C  0.01786278  0.69512988  0.18485157     0.02700
C1211       C  0.48655467  0.63327134  0.14992618     0.09500
C1212       C  0.44929390  0.65119443  0.19720145     0.35400
C1213       C  0.03955567  0.71157731  0.17691238     0.38900
C1214       C  0.49624700  0.60869360  0.15962645    -0.04700
C1215       C  0.49379429  0.58647689  0.13898773     0.02500
C1216       C  0.48177726  0.58864430  0.10793662    -0.04300
C1217       C  0.47029625  0.61306050  0.09962154    -0.00500
C1218       C  0.47312679  0.63521628  0.12017276    -0.03100
C1219       C  0.50926188  0.60648825  0.19078435     0.36200
C1220       C  0.95490654  0.61554589  0.07027778     0.39800
C1221       C  0.50413291  0.56162981  0.14988257     0.38900
C1222       C  0.96265368  0.66035037  0.11039754     0.35900
C1223       C  0.03299399  0.66296443  0.14353006     0.36500
C1224       C  0.45615387  0.69882949  0.23219819     0.39800
N1225       N  0.51223541  0.54183025  0.15895504    -0.38300
N1226       N  0.51964146  0.60487082  0.21567034    -0.39900
N1227       N  0.94245196  0.61784602  0.04708252    -0.37600
N1228       N  0.95440314  0.68045643  0.10268934    -0.40000
N1229       N  0.43087209  0.63898341  0.20073022    -0.39800
N1230       N  0.43891133  0.70613069  0.24743204    -0.37400
N1231       N  0.05659630  0.72485082  0.16988126    -0.38500
N1232       N  0.04833817  0.65540968  0.12543768    -0.40100
C1233       C  0.11187113  0.89446014  0.98683197    -0.05100
C1234       C  0.11062767  0.87369179  0.00956604     0.09100
C1235       C  0.08793504  0.86987415  0.02773926    -0.02400
C1236       C  0.06825843  0.88870965  0.02649476    -0.00700
C1237       C  0.06982277  0.90956539  0.00392911    -0.04300
C1238       C  0.09041976  0.91049263  0.98188854     0.02700
C1239       C  0.13263411  0.85520580  0.01333082     0.09500
C1240       C  0.08460372  0.84633242  0.04708533     0.35400
C1241       C  0.08780268  0.92486245  0.95159811     0.38900
C1242       C  0.14518756  0.85267115  0.04381578    -0.04700
C1243       C  0.16465907  0.83381890  0.04784934     0.02500
C1244       C  0.17326188  0.81918128  0.02072067    -0.04300
C1245       C  0.16185556  0.82301746  0.98979703    -0.00500
C1246       C  0.14073887  0.83983466  0.98651909    -0.03100
C1247       C  0.13797627  0.86938774  0.07103734     0.36200
C1248       C  0.17158994  0.80917343  0.96137603     0.39800
C1249       C  0.17546223  0.82913624  0.07993381     0.38900
C1250       C  0.12691971  0.84071301  0.95575337     0.35900
C1251       C  0.13508912  0.89951347  0.96851917     0.36500
C1252       C  0.04663929  0.88654506  0.04850978     0.39800
N1253       N  0.18400265  0.82542920  0.10559677    -0.38300
N1254       N  0.13209071  0.88274016  0.09265999    -0.39900
N1255       N  0.17941809  0.79825266  0.93867712    -0.37600
N1256       N  0.11592713  0.84157142  0.93123129    -0.40000
N1257       N  0.08186036  0.82741776  0.06220787    -0.39800
N1258       N  0.02951470  0.88472744  0.06625256    -0.37400
N1259       N  0.08505166  0.93505452  0.92662706    -0.38500
N1260       N  0.15359163  0.90360191  0.95389125    -0.40100
C1261       C  0.37720279  0.88053006  0.96561935    -0.05100
C1262       C  0.36314772  0.87536023  0.99439026     0.09100
C1263       C  0.36918367  0.88878188  0.02362504    -0.02400
C1264       C  0.38984614  0.90629529  0.02443592    -0.00700
C1265       C  0.40276696  0.91258493  0.99535218    -0.04300
C1266       C  0.39663126  0.89960840  0.96595682     0.02700
C1267       C  0.34311581  0.85458113  0.99479698     0.09500
C1268       C  0.35412339  0.88454502  0.05290893     0.35400
C1269       C  0.41035710  0.90590878  0.93617324     0.38900
C1270       C  0.34733303  0.83150817  0.01297917    -0.04700
C1271       C  0.32765539  0.81298814  0.01640591     0.02500
C1272       C  0.30422990  0.81642696  0.99961899    -0.04300
C1273       C  0.30070792  0.83871173  0.97959116    -0.00500
C1274       C  0.31964403  0.85827685  0.97837999    -0.03100
C1275       C  0.37188929  0.82706644  0.02864527     0.36200
C1276       C  0.27749214  0.84161390  0.96045741     0.39800
C1277       C  0.33154738  0.79044707  0.03740141     0.38900
C1278       C  0.31458247  0.88260061  0.96127964     0.35900
C1279       C  0.37197564  0.86600166  0.93587554     0.36500
C1280       C  0.39871271  0.91677985  0.05543414     0.39800
N1281       N  0.33477040  0.77237302  0.05392010    -0.38300
N1282       N  0.39144931  0.82372283  0.04122273    -0.39900
N1283       N  0.25882105  0.84387733  0.94552045    -0.37600
N1284       N  0.31037449  0.90205052  0.94782748    -0.40000
N1285       N  0.34206800  0.88117530  0.07622292    -0.39800
N1286       N  0.40607384  0.92482664  0.08016120    -0.37400
N1287       N  0.42129105  0.91107683  0.91247114    -0.38500
N1288       N  0.36788922  0.85447361  0.91206846    -0.40100
C1289       C  0.32720706  0.65054658  0.95769831    -0.05100
C1290       C  0.34299181  0.64594997  0.98509423     0.09100
C1291       C  0.33877614  0.66003017  0.01429842    -0.02400
C1292       C  0.31831007  0.67787421  0.01655281    -0.00700
C1293       C  0.30209515  0.68203656  0.98946906    -0.04300
C1294       C  0.30683683  0.66868174  0.95983784     0.02700
C1295       C  0.36314364  0.62512156  0.98432617     0.09500
C1296       C  0.35565768  0.65613401  0.04201742     0.35400
C1297       C  0.29102990  0.67400899  0.93152331     0.38900
C1298       C  0.38763644  0.63032868  0.97160141    -0.04700
C1299       C  0.40717615  0.61119961  0.97355122     0.02500
C1300       C  0.40252566  0.58682965  0.98927278    -0.04300
C1301       C  0.37773513  0.58200088  0.00225842    -0.00500
C1302       C  0.35810431  0.60073259  0.99888030    -0.03100
C1303       C  0.39268445  0.65556396  0.95670679     0.36200
C1304       C  0.37231837  0.55836198  0.02063900     0.39800
C1305       C  0.43181923  0.61680339  0.95887625     0.38900
C1306       C  0.33251130  0.59503058  0.01066932     0.35900
C1307       C  0.33199874  0.63660364  0.92742315     0.36500
C1308       C  0.31392766  0.69207964  0.04678263     0.39800
N1309       N  0.45138583  0.62165236  0.94715184    -0.38300
N1310       N  0.39658177  0.67572148  0.94484002    -0.39900
N1311       N  0.36766009  0.53968232  0.03544025    -0.37600
N1312       N  0.31206264  0.59049772  0.01985740    -0.40000
N1313       N  0.36923644  0.65299632  0.06399879    -0.39800
N1314       N  0.31042820  0.70345104  0.07085914    -0.37400
N1315       N  0.27848053  0.67842020  0.90889685    -0.38500
N1316       N  0.33596548  0.62552519  0.90325027    -0.40100
C1317       C  0.08540213  0.62883399  0.03259154    -0.05100
C1318       C  0.11032700  0.62448786  0.02080163     0.09100
C1319       C  0.11672105  0.60023222  0.00665106    -0.02400
C1320       C  0.09774430  0.58111794  0.00175972    -0.00700
C1321       C  0.07267362  0.58491174  0.01416522    -0.04300
C1322       C  0.06695569  0.60875728  0.03061370     0.02700
C1323       C  0.12963595  0.64592991  0.02081402     0.09500
C1324       C  0.14289558  0.59533232  0.99633763     0.35400
C1325       C  0.04231862  0.61288491  0.04599922     0.38900
C1326       C  0.14304561  0.65239332  0.04962899    -0.04700
C1327       C  0.16264168  0.67129150  0.04868319     0.02500
C1328       C  0.16967504  0.68272186  0.01865642    -0.04300
C1329       C  0.15628168  0.67620256  0.98985489    -0.00500
C1330       C  0.13587558  0.65834464  0.99109009    -0.03100
C1331       C  0.13714916  0.63903770  0.07992690     0.36200
C1332       C  0.16358360  0.68789620  0.95897276     0.39800
C1333       C  0.17558510  0.67905667  0.07849124     0.38900
C1334       C  0.12138729  0.65245376  0.96172588     0.35900
C1335       C  0.07852202  0.65429187  0.04577685     0.36500
C1336       C  0.10384029  0.55883202  0.98135655     0.39800
N1337       N  0.18583214  0.68542575  0.10227294    -0.38300
N1338       N  0.13249561  0.62823370  0.10402258    -0.39900
N1339       N  0.16949822  0.69716798  0.93434183    -0.37600
N1340       N  0.10974760  0.64768277  0.93841172    -0.40000
N1341       N  0.16384169  0.59167307  0.98838730    -0.39800
N1342       N  0.10924302  0.54166017  0.96428119    -0.37400
N1343       N  0.02282212  0.61663145  0.05850553    -0.38500
N1344       N  0.07290827  0.67466178  0.05597613    -0.40100
C1345       C  0.32222993  0.51951246  0.82560731    -0.05100
C1346       C  0.34022716  0.99967657  0.81870484     0.09100
C1347       C  0.33519406  0.98173131  0.79329143    -0.02400
C1348       C  0.31163420  0.98257835  0.77625425    -0.00700
C1349       C  0.29222581  0.00042489  0.78592275    -0.04300
C1350       C  0.29838579  0.51988917  0.80942277     0.02700
C1351       C  0.36316040  0.99631212  0.84047024     0.09500
C1352       C  0.35403482  0.96183403  0.78537890     0.35400
C1353       C  0.28067079  0.54111215  0.81611099     0.38900
C1354       C  0.36022755  0.98342889  0.87056991    -0.04700
C1355       C  0.38069092  0.98227218  0.89302659     0.02500
C1356       C  0.40469994  0.99414362  0.88571017    -0.04300
C1357       C  0.40812126  0.50500105  0.85404266    -0.00500
C1358       C  0.38733300  0.50636557  0.83181531    -0.03100
C1359       C  0.33583145  0.97135492  0.87843232     0.36200
C1360       C  0.43280375  0.51512330  0.84409491     0.39800
C1361       C  0.37664186  0.96825209  0.92337390     0.38900
C1362       C  0.39065958  0.51844733  0.80009221     0.35900
C1363       C  0.32814209  0.53936405  0.84987473     0.36500
C1364       C  0.30806992  0.96532565  0.74854555     0.39800
N1365       N  0.37262802  0.95705894  0.94736723    -0.38300
N1366       N  0.31637736  0.96172156  0.88448024    -0.39900
N1367       N  0.45254871  0.52295898  0.83591030    -0.37600
N1368       N  0.39332520  0.52800822  0.77471917    -0.40000
N1369       N  0.36903307  0.94591375  0.77909480    -0.39800
N1370       N  0.30649179  0.95179164  0.72592759    -0.37400
N1371       N  0.26683798  0.55827704  0.82154599    -0.38500
N1372       N  0.33280195  0.55529918  0.86911937    -0.40100
C1373       C  0.16104193  0.97599250  0.83001298    -0.05100
C1374       C  0.14921844  0.99999443  0.83809302     0.09100
C1375       C  0.16184520  0.52350222  0.83029857    -0.02400
C1376       C  0.18525916  0.52307647  0.81290787    -0.00700
C1377       C  0.19547999  0.99904150  0.80050066    -0.04300
C1378       C  0.18456611  0.97552668  0.81290868     0.02700
C1379       C  0.12564868  0.00036807  0.85934867     0.09500
C1380       C  0.15104595  0.54824305  0.84116385     0.35400
C1381       C  0.19870131  0.95110641  0.81197204     0.38900
C1382       C  0.12794994  0.49468480  0.89280709    -0.04700
C1383       C  0.10609598  0.49336586  0.91298272     0.02500
C1384       C  0.08115814  0.99925061  0.90038398    -0.04300
C1385       C  0.07928114  0.00619681  0.86672411    -0.00500
C1386       C  0.10133086  0.00639168  0.84643732    -0.03100
C1387       C  0.15323520  0.49059391  0.90669742     0.36200
C1388       C  0.05496889  0.01396127  0.85265109     0.39800
C1389       C  0.11003112  0.48541413  0.94668723     0.38900
C1390       C  0.09914536  0.01320215  0.81216434     0.35900
C1391       C  0.14925122  0.95161190  0.84021062     0.36500
C1392       C  0.19964412  0.54729182  0.81095664     0.39800
N1393       N  0.11351009  0.47919748  0.97350886    -0.38300
N1394       N  0.17340429  0.48750045  0.91770044    -0.39900
N1395       N  0.03567424  0.02022413  0.84116876    -0.37600
N1396       N  0.09752557  0.01877253  0.78485196    -0.40000
N1397       N  0.14239276  0.56796674  0.84974514    -0.39800
N1398       N  0.21071807  0.56686649  0.80948531    -0.37400
N1399       N  0.20971677  0.93143807  0.81203747    -0.38500
N1400       N  0.13987721  0.93219753  0.84845198    -0.40100
C1401       C  0.01658282  0.62318827  0.86709052    -0.05100
C1402       C  0.49424249  0.63141852  0.85053301     0.09100
C1403       C  0.47139211  0.61700256  0.85451210    -0.02400
C1404       C  0.47077682  0.59487435  0.87528770    -0.00700
C1405       C  0.49306748  0.58681493  0.89200518    -0.04300
C1406       C  0.01600586  0.60099129  0.88770238     0.02700
C1407       C  0.49511434  0.65492667  0.82831724     0.09500
C1408       C  0.44842511  0.62521628  0.83754367     0.35400
C1409       C  0.03902043  0.59276052  0.90468954     0.38900
C1410       C  0.00069137  0.65167348  0.79490989    -0.04700
C1411       C  0.00344290  0.67371038  0.77435964     0.02500
C1412       C  0.50140316  0.69956667  0.78711813    -0.04300
C1413       C  0.49446864  0.70266755  0.82037791    -0.00500
C1414       C  0.49111459  0.68044638  0.84069947    -0.03100
C1415       C  0.00368604  0.62545122  0.78168069     0.36200
C1416       C  0.49138351  0.72856716  0.83431195     0.39800
C1417       C  0.00745264  0.66943809  0.73972729     0.38900
C1418       C  0.48351615  0.68376778  0.87451595     0.35900
C1419       C  0.04016267  0.63775499  0.86310038     0.36500
C1420       C  0.44692560  0.58108202  0.88074816     0.39800
N1421       N  0.01050978  0.66544697  0.71218404    -0.38300
N1422       N  0.00603312  0.60452819  0.77115727    -0.39900
N1423       N  0.48857607  0.74896786  0.84615347    -0.37600
N1424       N  0.47723672  0.68639366  0.90143153    -0.40000
N1425       N  0.43010008  0.63179390  0.82396797    -0.39800
N1426       N  0.42791890  0.57014743  0.88552775    -0.37400
N1427       N  0.05735081  0.58615160  0.91824901    -0.38500
N1428       N  0.05897808  0.64940063  0.85998790    -0.40100
C1429       C  0.00553908  0.88767459  0.84124781    -0.05100
C1430       C  0.49661249  0.86288892  0.85122630     0.09100
C1431       C  0.48566329  0.86011764  0.88237081    -0.02400
C1432       C  0.48350129  0.88185486  0.90357705    -0.00700
C1433       C  0.49276216  0.90709477  0.89409833    -0.04300
C1434       C  0.00395618  0.90957887  0.86256428     0.02700
C1435       C  0.49923623  0.83919669  0.82954055     0.09500
C1436       C  0.47689366  0.83445514  0.89279081     0.35400
C1437       C  0.01521692  0.93417956  0.85234865     0.38900
C1438       C  0.01961249  0.82148993  0.83440098    -0.04700
C1439       C  0.02099847  0.79810635  0.81601104     0.02500
C1440       C  0.50297174  0.79287093  0.79101118    -0.04300
C1441       C  0.48192640  0.81003594  0.78720293    -0.00500
C1442       C  0.47998298  0.83296295  0.80662396    -0.03100
C1443       C  0.03903848  0.82721564  0.85870537     0.36200
C1444       C  0.46202839  0.80422522  0.76371843     0.39800
C1445       C  0.03969232  0.77834082  0.82479967     0.38900
C1446       C  0.45794846  0.85005657  0.80350345     0.35900
C1447       C  0.01686465  0.89046067  0.80911354     0.36500
C1448       C  0.47173474  0.87748399  0.93523531     0.39800
N1449       N  0.05400029  0.76227948  0.83281860    -0.38300
N1450       N  0.05457791  0.83178510  0.87803040    -0.39900
N1451       N  0.44555610  0.80003062  0.74558447    -0.37600
N1452       N  0.44034169  0.86370291  0.80131993    -0.40000
N1453       N  0.47010391  0.81393988  0.90102456    -0.39800
N1454       N  0.46255093  0.87346505  0.96045274    -0.37400
N1455       N  0.02437225  0.95372254  0.84416729    -0.38500
N1456       N  0.02586705  0.89269543  0.78344948    -0.40100
C1457       C  0.41702012  0.73104822  0.69727812    -0.05100
C1458       C  0.41244390  0.74887026  0.67162548     0.09100
C1459       C  0.43144259  0.76744211  0.66386434    -0.02400
C1460       C  0.45508698  0.76768917  0.68083995    -0.00700
C1461       C  0.46023306  0.74914785  0.70596622    -0.04300
C1462       C  0.44066618  0.73109434  0.71425662     0.02700
C1463       C  0.38839610  0.74697650  0.65123682     0.09500
C1464       C  0.42668087  0.78613047  0.63787920     0.35400
C1465       C  0.44480356  0.71158286  0.73931719     0.38900
C1466       C  0.36848281  0.76560876  0.65446748    -0.04700
C1467       C  0.34706673  0.76493453  0.63324013     0.02500
C1468       C  0.34500839  0.74521574  0.60907593    -0.04300
C1469       C  0.36422214  0.72570914  0.60715634    -0.00500
C1470       C  0.38600515  0.72692218  0.62758322    -0.03100
C1471       C  0.37026694  0.78583027  0.67924995     0.36200
C1472       C  0.36136972  0.70391642  0.58466438     0.39800
C1473       C  0.32777464  0.78532679  0.63519192     0.38900
C1474       C  0.40645631  0.70795043  0.62353183     0.35900
C1475       C  0.39738702  0.71222957  0.70589199     0.36500
C1476       C  0.47376187  0.78763127  0.67272144     0.39800
N1477       N  0.31237099  0.80159477  0.63654502    -0.38300
N1478       N  0.37157802  0.80204748  0.69897088    -0.39900
N1479       N  0.35919741  0.68622470  0.56717822    -0.37600
N1480       N  0.42284964  0.69291862  0.62024943    -0.40000
N1481       N  0.42260490  0.80099972  0.61721450    -0.39800
N1482       N  0.48861965  0.80350605  0.66595931    -0.37400
N1483       N  0.44711889  0.69572164  0.75923569    -0.38500
N1484       N  0.38182646  0.69712634  0.71280262    -0.40100
C1485       C  0.13154364  0.76616278  0.62518850    -0.05100
C1486       C  0.12882617  0.74569234  0.64796808     0.09100
C1487       C  0.14807277  0.72635748  0.65038045    -0.02400
C1488       C  0.16958606  0.72709419  0.62944757    -0.00700
C1489       C  0.17196085  0.74723100  0.60593514    -0.04300
C1490       C  0.15304089  0.76702417  0.60441184     0.02700
C1491       C  0.10534750  0.74441861  0.66900665     0.09500
C1492       C  0.14544356  0.70546032  0.67407905     0.35400
C1493       C  0.15607972  0.78886049  0.58216342     0.38900
C1494       C  0.08341527  0.73126126  0.65790162    -0.04700
C1495       C  0.06087092  0.73091296  0.67699614     0.02500
C1496       C  0.05912967  0.74568026  0.70665152    -0.04300
C1497       C  0.08266353  0.75588102  0.71935879    -0.00500
C1498       C  0.10520768  0.75590874  0.70018399    -0.03100
C1499       C  0.08425315  0.71770418  0.62670747     0.36200
C1500       C  0.08517292  0.76445804  0.75292001     0.39800
C1501       C  0.04038482  0.71374334  0.66651077     0.38900
C1502       C  0.12868106  0.76733690  0.71278680     0.35900
C1503       C  0.11201868  0.78629447  0.62300296     0.36500
C1504       C  0.18864391  0.70649574  0.63129899     0.39800
N1505       N  0.02423480  0.70006167  0.65743479    -0.38300
N1506       N  0.08499587  0.70692675  0.60182895    -0.39900
N1507       N  0.08851988  0.77162632  0.77939432    -0.37600
N1508       N  0.14744303  0.77629339  0.72281010    -0.40000
N1509       N  0.14332074  0.68880782  0.69301675    -0.39800
N1510       N  0.20368933  0.68991458  0.63301099    -0.37400
N1511       N  0.15857152  0.80649423  0.56476909    -0.38500
N1512       N  0.09641688  0.80232790  0.62122949    -0.40100
C1513       C  0.26031394  0.63925623  0.65956391    -0.05100
C1514       C  0.25268619  0.61435901  0.64811011     0.09100
C1515       C  0.24642164  0.61112850  0.61488656    -0.02400
C1516       C  0.24626204  0.63275398  0.59362419    -0.00700
C1517       C  0.25493129  0.65780298  0.60440301    -0.04300
C1518       C  0.26206508  0.66071319  0.63778834     0.02700
C1519       C  0.24993588  0.59146401  0.67087003     0.09500
C1520       C  0.23999138  0.58523942  0.60247799     0.35400
C1521       C  0.27157545  0.68552951  0.65010091     0.38900
C1522       C  0.22558368  0.58036350  0.67591301    -0.04700
C1523       C  0.22314942  0.55626778  0.69225105     0.02500
C1524       C  0.24438905  0.54505945  0.70883416    -0.04300
C1525       C  0.26872491  0.55707350  0.70506650    -0.00500
C1526       C  0.27158226  0.57931932  0.68480736    -0.03100
C1527       C  0.20291018  0.59379805  0.66404366     0.36200
C1528       C  0.29102412  0.54743241  0.72224906     0.39800
C1529       C  0.19901201  0.54236062  0.68992755     0.38900
C1530       C  0.29689095  0.58961348  0.67799719     0.35900
C1531       C  0.26637546  0.64277662  0.69388604     0.36500
C1532       C  0.23601120  0.62877938  0.56102802     0.39800
N1533       N  0.17982997  0.53120991  0.68766998    -0.38300
N1534       N  0.18492694  0.60470402  0.65470188    -0.39900
N1535       N  0.30948204  0.54054810  0.73527377    -0.37600
N1536       N  0.31704456  0.59784217  0.67247321    -0.40000
N1537       N  0.23481288  0.56461444  0.59274929    -0.39800
N1538       N  0.22775788  0.62492809  0.53523922    -0.37400
N1539       N  0.27914925  0.70527611  0.66010845    -0.38500
N1540       N  0.27136690  0.64548126  0.72123172    -0.40100
C1541       C  0.27429642  0.87999977  0.62571900    -0.05100
C1542       C  0.25408649  0.88240572  0.64842418     0.09100
C1543       C  0.23602665  0.86185054  0.65091514    -0.02400
C1544       C  0.23764485  0.83965898  0.63017018    -0.00700
C1545       C  0.25751481  0.83756332  0.60690077    -0.04300
C1546       C  0.27599581  0.85777918  0.60515801     0.02700
C1547       C  0.25177593  0.90655401  0.66963804     0.09500
C1548       C  0.21547763  0.86366603  0.67460336     0.35400
C1549       C  0.29721151  0.85565348  0.58255263     0.38900
C1550       C  0.24476284  0.93099208  0.65594520    -0.04700
C1551       C  0.24199024  0.95343468  0.67606580     0.02500
C1552       C  0.24550724  0.95155262  0.71017599    -0.04300
C1553       C  0.25299660  0.92725886  0.72376198    -0.00500
C1554       C  0.25655838  0.90505966  0.70355882    -0.03100
C1555       C  0.24009470  0.93299491  0.62110771     0.36200
C1556       C  0.25832285  0.92537949  0.75846147     0.39800
C1557       C  0.23505726  0.97833577  0.66161348     0.38900
C1558       C  0.26557534  0.88069038  0.71763921     0.35900
C1559       C  0.29345506  0.90046351  0.62344305     0.36500
C1560       C  0.21808828  0.81960827  0.63181905     0.39800
N1561       N  0.22964911  0.99808658  0.64963412    -0.38300
N1562       N  0.23653749  0.93462269  0.59327910    -0.39900
N1563       N  0.26313304  0.92391146  0.78599154    -0.37600
N1564       N  0.27278102  0.86125081  0.72886895    -0.40000
N1565       N  0.19921219  0.86491182  0.69371395    -0.39800
N1566       N  0.20236987  0.80372800  0.63329251    -0.37400
N1567       N  0.31438883  0.85434527  0.56484780    -0.38500
N1568       N  0.30868485  0.91680370  0.62133652    -0.40100
C1569       C  0.35990370  0.61696904  0.50621656    -0.05100
C1570       C  0.38397635  0.62365765  0.49341212     0.09100
C1571       C  0.38884684  0.64927728  0.48270449    -0.02400
C1572       C  0.36932637  0.66816110  0.48349295    -0.00700
C1573       C  0.34490591  0.66182403  0.49658440    -0.04300
C1574       C  0.34042263  0.63594633  0.50811272     0.02700
C1575       C  0.40442641  0.60361362  0.49123542     0.09500
C1576       C  0.41422608  0.65627688  0.47123099     0.35400
C1577       C  0.31601029  0.62846245  0.52217570     0.38900
C1578       C  0.41085575  0.59259651  0.46068080    -0.04700
C1579       C  0.43106927  0.57455336  0.45849969     0.02500
C1580       C  0.44296477  0.56550827  0.48724648    -0.04300
C1581       C  0.43606842  0.57609615  0.51791961    -0.00500
C1582       C  0.41765121  0.59604373  0.51966775    -0.03100
C1583       C  0.39650065  0.59965159  0.43166510     0.36200
C1584       C  0.44825921  0.56676794  0.54756226     0.39800
C1585       C  0.43997291  0.56560049  0.42682208     0.38900
C1586       C  0.41276127  0.60933103  0.55042705     0.35900
C1587       C  0.35536747  0.59047570  0.51771952     0.36500
C1588       C  0.37462160  0.69375080  0.46968398     0.43600
N1589       N  0.44732989  0.55856871  0.40162267    -0.38300
N1590       N  0.38487852  0.60511647  0.40859512    -0.39900
N1591       N  0.45798625  0.55934101  0.57119650    -0.37600
N1592       N  0.40903743  0.62021983  0.57479602    -0.40000
N1593       N  0.43446341  0.66191787  0.46224738    -0.39800
N1594       N  0.37927604  0.71403985  0.45866416    -0.37400
N1595       N  0.29659596  0.62212090  0.53317790    -0.38500
N1596       N  0.35196553  0.56938011  0.52703867    -0.40100
C1597       C  0.13358696  0.64579293  0.51983696    -0.05100
C1598       C  0.13695550  0.62211348  0.50278494     0.09100
C1599       C  0.15963408  0.61738366  0.48516174    -0.02400
C1600       C  0.17845823  0.63696099  0.48312112    -0.00700
C1601       C  0.17541997  0.66073172  0.50070856    -0.04300
C1602       C  0.15309036  0.66466441  0.51979622     0.02700
C1603       C  0.11580368  0.60281857  0.50154302     0.09500
C1604       C  0.16330628  0.59243384  0.46869947     0.35400
C1605       C  0.15005450  0.68772732  0.54016754     0.38900
C1606       C  0.10107077  0.60058928  0.47281677    -0.04700
C1607       C  0.08148496  0.58189862  0.47096564     0.02500
C1608       C  0.07583245  0.56628056  0.49839584    -0.04300
C1609       C  0.09009824  0.56903449  0.52749230    -0.00500
C1610       C  0.11037086  0.58703909  0.52889739    -0.03100
C1611       C  0.10607253  0.61768681  0.44526990     0.36200
C1612       C  0.08400481  0.55314015  0.55578592     0.39800
C1613       C  0.06745029  0.57836392  0.44069874     0.38900
C1614       C  0.12577857  0.58920969  0.55827375     0.35900
C1615       C  0.10970029  0.65099591  0.53679445     0.36500
C1616       C  0.20023722  0.63287689  0.46169180     0.39800
N1617       N  0.05625793  0.57549412  0.41656552    -0.38300
N1618       N  0.11017932  0.63143446  0.42346006    -0.39900
N1619       N  0.07911802  0.54038325  0.57826380    -0.37600
N1620       N  0.13805583  0.59095609  0.58170883    -0.40000
N1621       N  0.16613933  0.57248917  0.45569351    -0.39800
N1622       N  0.21747504  0.62943975  0.44446533    -0.37400
N1623       N  0.14700608  0.70584746  0.55671902    -0.38500
N1624       N  0.09062590  0.65522192  0.55015310    -0.40100
C1625       C  0.13035703  0.84782143  0.48101177    -0.05100
C1626       C  0.13481514  0.87221941  0.49599421     0.09100
C1627       C  0.15861540  0.87771715  0.51049421    -0.02400
C1628       C  0.17766259  0.85835055  0.51149716    -0.00700
C1629       C  0.17350731  0.83376726  0.49611843    -0.04300
C1630       C  0.14990096  0.82895209  0.48002245     0.02700
C1631       C  0.11433958  0.89228787  0.49650465     0.09500
C1632       C  0.16346905  0.90342957  0.52442575     0.35400
C1633       C  0.14582826  0.80532690  0.46091876     0.38900
C1634       C  0.10187103  0.89835143  0.52613413    -0.04700
C1635       C  0.08315438  0.91806530  0.52685802     0.02500
C1636       C  0.07573800  0.93043032  0.49757499    -0.04300
C1637       C  0.08780242  0.92388729  0.46779500    -0.00500
C1638       C  0.10767139  0.90541876  0.46746207    -0.03100
C1639       C  0.10835917  0.88426786  0.55577728     0.36200
C1640       C  0.08024925  0.93678933  0.43772377     0.39800
C1641       C  0.07164445  0.92579542  0.55765617     0.38900
C1642       C  0.12161999  0.90028117  0.43745685     0.35900
C1643       C  0.10555522  0.84218319  0.46660150     0.36500
C1644       C  0.20114124  0.86385889  0.52919900     0.39800
N1645       N  0.06250169  0.93201166  0.58222471    -0.38300
N1646       N  0.11364842  0.87297312  0.57931689    -0.39900
N1647       N  0.07433328  0.94731789  0.41387781    -0.37600
N1648       N  0.13281385  0.89622807  0.41358452    -0.40000
N1649       N  0.16733881  0.92391125  0.53552553    -0.39800
N1650       N  0.21978598  0.86853057  0.54329405    -0.37400
N1651       N  0.14213862  0.78679801  0.44529478    -0.38500
N1652       N  0.08578422  0.83776174  0.45513372    -0.40100
C1653       C  0.38574537  0.85112510  0.51781641    -0.05100
C1654       C  0.38220525  0.87383255  0.49889180     0.09100
C1655       C  0.35893729  0.87811081  0.48248772    -0.02400
C1656       C  0.33944859  0.85919994  0.48387189    -0.00700
C1657       C  0.34297868  0.83603621  0.50247792    -0.04300
C1658       C  0.36596175  0.83259337  0.52037867     0.02700
C1659       C  0.40304316  0.89346937  0.49628783     0.09500
C1660       C  0.35524815  0.90194606  0.46378140     0.35400
C1661       C  0.36910366  0.81051179  0.54232899     0.38900
C1662       C  0.41995045  0.89269581  0.46947674    -0.04700
C1663       C  0.43983675  0.91115405  0.46717000     0.02500
C1664       C  0.44253654  0.93066362  0.49145056    -0.04300
C1665       C  0.42508720  0.93180344  0.51778768    -0.00500
C1666       C  0.40543851  0.91315303  0.52025108    -0.03100
C1667       C  0.41643559  0.87321325  0.44400277     0.36200
C1668       C  0.42713730  0.95246121  0.54206017     0.39800
C1669       C  0.45739391  0.91022159  0.43976894     0.38900
C1670       C  0.38732965  0.91444651  0.54706483     0.35900
C1671       C  0.40997626  0.84666397  0.53420093     0.36500
C1672       C  0.31613775  0.86364212  0.46539459     0.39800
N1673       N  0.47151561  0.90937097  0.41802701    -0.38300
N1674       N  0.41333659  0.85777991  0.42363389    -0.39900
N1675       N  0.42865440  0.96918843  0.56108624    -0.37600
N1676       N  0.37281143  0.91549128  0.56836476    -0.40000
N1677       N  0.35231011  0.92094792  0.44888001    -0.39800
N1678       N  0.29759139  0.86755532  0.45074669    -0.37400
N1679       N  0.37167114  0.79302507  0.55997542    -0.38500
N1680       N  0.42936324  0.84298902  0.54706109    -0.40100
C1681       C  0.12963348  0.73621715  0.37536415    -0.05100
C1682       C  0.12931962  0.75444972  0.34956565     0.09100
C1683       C  0.15096991  0.77039160  0.34421668    -0.02400
C1684       C  0.17250376  0.76865900  0.36512741    -0.00700
C1685       C  0.17298813  0.75018860  0.39088033    -0.04300
C1686       C  0.15152537  0.73356081  0.39528827     0.02700
C1687       C  0.10673574  0.75541712  0.32678824     0.09500
C1688       C  0.15104829  0.78852920  0.31702307     0.35400
C1689       C  0.15208861  0.71302871  0.41973734     0.38900
C1690       C  0.08740851  0.77438608  0.33056722    -0.04700
C1691       C  0.06518826  0.77359094  0.31072692     0.02500
C1692       C  0.06175332  0.75344487  0.28675920    -0.04300
C1693       C  0.08350990  0.73733248  0.27990349    -0.00500
C1694       C  0.10498074  0.73735348  0.30094924    -0.03100
C1695       C  0.09052915  0.79482755  0.35492655     0.36200
C1696       C  0.08627153  0.72323245  0.24943593     0.39800
C1697       C  0.04637258  0.79431832  0.31447228     0.38900
C1698       C  0.12583990  0.71899404  0.29561219     0.35900
C1699       C  0.10721195  0.72024914  0.38156508     0.36500
C1700       C  0.19371009  0.78653445  0.36066541     0.39800
N1701       N  0.03156516  0.81103800  0.31735542    -0.38300
N1702       N  0.09321946  0.81123574  0.37417370    -0.39900
N1703       N  0.08971624  0.71172155  0.22545392    -0.37600
N1704       N  0.14247806  0.70437675  0.29153088    -0.40000
N1705       N  0.15108116  0.80290720  0.29521070    -0.39800
N1706       N  0.21057446  0.80086349  0.35691921    -0.37400
N1707       N  0.15236719  0.69646323  0.43897415    -0.38500
N1708       N  0.08928420  0.70763954  0.38669824    -0.40100
C1709       C  0.37267237  0.73870575  0.34463880    -0.05100
C1710       C  0.39544363  0.75046905  0.35609222     0.09100
C1711       C  0.39540054  0.76282047  0.38687413    -0.02400
C1712       C  0.37276698  0.76415658  0.40559110    -0.00700
C1713       C  0.35006659  0.75109280  0.39528380    -0.04300
C1714       C  0.35028851  0.73843456  0.36434366     0.02700
C1715       C  0.41952886  0.75027141  0.33576528     0.09500
C1716       C  0.41896179  0.77389468  0.39967773     0.35400
C1717       C  0.32794162  0.72433641  0.35297186     0.38900
C1718       C  0.42873849  0.77375202  0.32173013    -0.04700
C1719       C  0.45216379  0.77396650  0.30452767     0.02500
C1720       C  0.46531754  0.75032749  0.29834607    -0.04300
C1721       C  0.45695472  0.72714406  0.31374335    -0.00500
C1722       C  0.43419888  0.72710700  0.33243489    -0.03100
C1723       C  0.41410698  0.79776503  0.32502207     0.36200
C1724       C  0.47222825  0.70348662  0.31095041     0.39800
C1725       C  0.46359800  0.79871597  0.29517660     0.38900
C1726       C  0.42619654  0.70336790  0.34885851     0.35900
C1727       C  0.37241974  0.72686691  0.31241050     0.36500
C1728       C  0.37311797  0.77990261  0.43510506     0.39800
N1729       N  0.47279871  0.81849147  0.28799639    -0.38300
N1730       N  0.40240956  0.81692224  0.32755348    -0.39900
N1731       N  0.48462202  0.68478585  0.30849144    -0.37600
N1732       N  0.41989481  0.68439818  0.36200091    -0.40000
N1733       N  0.43771594  0.78264111  0.41000566    -0.39800
N1734       N  0.37409821  0.79268707  0.45841786    -0.37400
N1735       N  0.31023359  0.71295450  0.34367519    -0.38500
N1736       N  0.37248578  0.71755664  0.28660824    -0.40100
C1737       C  0.27655790  0.86769558  0.35230040    -0.05100
C1738       C  0.25453161  0.88381744  0.35218714     0.09100
C1739       C  0.23378381  0.87737337  0.37266671    -0.02400
C1740       C  0.23484145  0.85488934  0.39264573    -0.00700
C1741       C  0.25686758  0.83876475  0.39300846    -0.04300
C1742       C  0.27773712  0.84524849  0.37261739     0.02700
C1743       C  0.25250841  0.90699596  0.32955134     0.09500
C1744       C  0.21126702  0.89402459  0.37327121     0.35400
C1745       C  0.30067159  0.82925522  0.37325940     0.38900
C1746       C  0.24608761  0.90317316  0.29642648    -0.04700
C1747       C  0.24219446  0.92487187  0.27556362     0.02500
C1748       C  0.24438406  0.95091732  0.28769344    -0.04300
C1749       C  0.25149754  0.95458531  0.32078283    -0.00500
C1750       C  0.25556343  0.93276989  0.34149084    -0.03100
C1751       C  0.24302264  0.87671907  0.28398498     0.36200
C1752       C  0.25369854  0.98072668  0.33428420     0.39800
C1753       C  0.23662754  0.92013862  0.24131522     0.38900
C1754       C  0.26245554  0.93682481  0.37544484     0.35900
C1755       C  0.29816689  0.87463898  0.33193279     0.36500
C1756       C  0.21263334  0.84776546  0.41177529     0.39800
N1757       N  0.23212500  0.91622902  0.21405265    -0.38300
N1758       N  0.24063768  0.85555969  0.27425824    -0.39900
N1759       N  0.25573055  0.00134505  0.34576302    -0.37600
N1760       N  0.26788954  0.94010396  0.40255137    -0.40000
N1761       N  0.19340363  0.90742521  0.37399618    -0.39800
N1762       N  0.19451623  0.84212452  0.42630504    -0.37400
N1763       N  0.31895762  0.81645786  0.37386365    -0.38500
N1764       N  0.31532036  0.88041784  0.31561881    -0.40100
C1765       C  0.27590404  0.61643287  0.37240099    -0.05100
C1766       C  0.25697484  0.61568957  0.34783860     0.09100
C1767       C  0.24106260  0.63778002  0.34317560    -0.02400
C1768       C  0.24282709  0.65964970  0.36436342    -0.00700
C1769       C  0.26122365  0.66005061  0.38972449    -0.04300
C1770       C  0.27828179  0.63860962  0.39285401     0.02700
C1771       C  0.25293716  0.59109547  0.32810584     0.09500
C1772       C  0.22270710  0.63787888  0.31662165     0.35400
C1773       C  0.29870544  0.63937111  0.41676235     0.38900
C1774       C  0.23175032  0.57483418  0.33459328    -0.04700
C1775       C  0.22744432  0.55204420  0.31568697     0.02500
C1776       C  0.24494016  0.54449044  0.29087431    -0.04300
C1777       C  0.26749206  0.55954181  0.28678136    -0.00500
C1778       C  0.27081871  0.58329880  0.30417976    -0.03100
C1779       C  0.21459383  0.58141321  0.36125727     0.36200
C1780       C  0.28799668  0.55058860  0.26584480     0.39800
C1781       C  0.20557626  0.53565747  0.32309062     0.38900
C1782       C  0.29259685  0.59998734  0.29723284     0.35900
C1783       C  0.29270604  0.59408626  0.37702084     0.36500
C1784       C  0.22470596  0.68103058  0.36112742     0.39800
N1785       N  0.18817231  0.52266814  0.32947516    -0.38300
N1786       N  0.20109186  0.58672169  0.38267716    -0.39900
N1787       N  0.30549041  0.54406365  0.25055198    -0.37600
N1788       N  0.30990320  0.61337435  0.29170395    -0.40000
N1789       N  0.20814927  0.63802158  0.29532207    -0.39800
N1790       N  0.21015389  0.69801222  0.35863538    -0.37400
N1791       N  0.31531080  0.63960824  0.43541928    -0.38500
N1792       N  0.30616586  0.57629673  0.38052762    -0.40100
O1793       O  0.76140922  0.20565979  0.40455558    -0.86100
O1794       O  0.75575116  0.20407895  0.59125615    -0.86200
O1795       O  0.80098703  0.17441226  0.49603025    -0.87900
O1796       O  0.71888658  0.17403566  0.49899038    -0.86700
O1797       O  0.68763770  0.20539027  0.49823397    -0.86300
O1798       O  0.83136473  0.20619955  0.50081145    -0.87600
O1799       O  0.75964299  0.17394898  0.55016334    -0.86100
O1800       O  0.76074055  0.17435002  0.44479871    -0.85700
Zr1801     Zr  0.75988647  0.19613165  0.49777403     2.84300
O1802       O  0.73380752  0.22151510  0.53168546    -1.07700
O1803       O  0.78591813  0.22264377  0.46546813    -1.08400
C1804       C  0.76128613  0.18156308  0.41457779     1.07000
C1805       C  0.75692053  0.18018974  0.58052188     1.07000
C1806       C  0.82438103  0.18210509  0.49797398     1.10000
C1807       C  0.69530637  0.18140431  0.49913630     1.07700
H1808       H  0.79532573  0.21041189  0.54643660     0.33300
O1809       O  0.78472634  0.22172092  0.53300669    -1.28600
H1810       H  0.72377944  0.21113073  0.45029616     0.33000
O1811       O  0.73442829  0.22219442  0.46402583    -1.30300
O1812       O  0.75789418  0.29164819  0.59277974    -0.86100
O1813       O  0.75996119  0.29286443  0.40578980    -0.87600
O1814       O  0.83145195  0.24675280  0.55385085    -0.86100
O1815       O  0.68674982  0.24740090  0.55119226    -0.86200
O1816       O  0.68759845  0.24899644  0.44544203    -0.85900
O1817       O  0.83286938  0.24828659  0.44881402    -0.85700
O1818       O  0.79953817  0.32264542  0.50215539    -0.86100
O1819       O  0.71714302  0.32100783  0.49630218    -0.85600
O1820       O  0.83075745  0.29123700  0.50227126    -0.86600
O1821       O  0.68643465  0.28927307  0.49836112    -0.85800
O1822       O  0.80061126  0.24669755  0.59385785    -0.86200
O1823       O  0.80416935  0.25003289  0.40653810    -0.85900
O1824       O  0.71797401  0.24985556  0.40489224    -0.85500
O1825       O  0.71646627  0.24693443  0.59255697    -0.86000
O1826       O  0.75800800  0.32267769  0.55217446    -0.86200
O1827       O  0.75805697  0.32320476  0.44731956    -0.87600
Zr1828     Zr  0.75860097  0.24789709  0.56652947     2.83100
Zr1829     Zr  0.76066793  0.24901013  0.43120697     2.83500
Zr1830     Zr  0.81037748  0.24854162  0.50070259     2.84100
Zr1831     Zr  0.70849940  0.24771627  0.49830380     2.83400
Zr1832     Zr  0.75881587  0.30044139  0.49959825     2.84200
O1833       O  0.73411553  0.27424046  0.46529573    -1.08200
O1834       O  0.78438763  0.27466643  0.53376248    -1.07700
C1835       C  0.75786353  0.31570490  0.58246653     1.07000
C1836       C  0.75856759  0.31668072  0.41682311     1.09600
C1837       C  0.82419820  0.24622292  0.58402810     1.07200
C1838       C  0.69322981  0.24705117  0.58169252     1.07500
C1839       C  0.69444488  0.24965671  0.41517387     1.07100
C1840       C  0.82736339  0.24960382  0.41812218     1.06700
C1841       C  0.82309722  0.31527091  0.50250313     1.07100
C1842       C  0.69368546  0.31332231  0.49688100     1.06600
H1843       H  0.79647219  0.28643222  0.45359269     0.33300
O1844       O  0.78551752  0.27505797  0.46642254    -1.29300
H1845       H  0.72186742  0.28524038  0.54596077     0.33300
O1846       O  0.73297366  0.27428409  0.53272980    -1.30600
N1847       N  0.97081857  0.99800154  0.48762552    -0.36200
N1848       N  0.50952870  0.45783952  0.49278488    -0.56800
N1849       N  0.54840202  0.99851437  0.49852807    -0.36200
N1850       N  0.50970695  0.03856493  0.48957439    -0.56800
C1851       C  0.95643851  0.47653083  0.48176204     0.27400
C1852       C  0.95629825  0.01912057  0.48056265     0.27400
C1853       C  0.56347150  0.47721717  0.49492447     0.27400
C1854       C  0.56338293  0.01971265  0.49391234     0.27400
C1855       C  0.98869509  0.44244854  0.49578252     0.36000
C1856       C  0.52990651  0.44262819  0.49969210     0.36000
C1857       C  0.98886994  0.05412638  0.48995011     0.36000
C1858       C  0.52987285  0.05434021  0.49541185     0.36000
C1859       C  0.93247943  0.48407657  0.47070593    -0.21500
C1860       C  0.93227170  0.01095255  0.47034441    -0.21500
C1861       C  0.58847535  0.48507293  0.48903755    -0.21500
C1862       C  0.58835904  0.01186664  0.48813096    -0.21500
C1863       C  0.99587706  0.41724467  0.50433170    -0.22500
C1864       C  0.52203444  0.41725587  0.50633030    -0.22500
C1865       C  0.99594935  0.08002750  0.49483344    -0.22500
C1866       C  0.52194210  0.08012421  0.49855315    -0.22500
C1867       C  0.96338243  0.45047739  0.48923193    -0.17900
C1868       C  0.96349744  0.04550630  0.48546200    -0.17900
C1869       C  0.55553852  0.04605493  0.49622582    -0.17900
C1870       C  0.55560244  0.45088235  0.49802395    -0.17900
H1871       H  0.91648848  0.47153488  0.46460521     0.15000
H1872       H  0.91602378  0.02298996  0.46383756     0.15000
H1873       H  0.60521898  0.47286720  0.48582391     0.15000
H1874       H  0.60486887  0.02417174  0.48388690     0.15000
H1875       H  0.98362261  0.40046100  0.50814510     0.13300
H1876       H  0.53382923  0.40043232  0.51194824     0.13300
H1877       H  0.98369879  0.09712043  0.49566272     0.13300
H1878       H  0.53366378  0.09725609  0.50280260     0.13300
H1879       H  0.98799765  0.99837719  0.50016719     0.26600
H1880       H  0.52976437  0.99862681  0.50710309     0.26600
O1881       O  0.99151536  0.45387149  0.90678740    -0.86100
O1882       O  0.98034207  0.45501543  0.09262589    -0.86200
O1883       O  0.52676845  0.42326136  0.00268529    -0.87900
O1884       O  0.94598205  0.42485426  0.99642217    -0.86700
O1885       O  0.91516850  0.45689621  0.99591959    -0.86300
O1886       O  0.55824007  0.45448472  0.00337572    -0.87600
O1887       O  0.98371047  0.42434893  0.05202599    -0.86100
O1888       O  0.99096153  0.42411248  0.94827149    -0.85700
Zr1889     Zr  0.98684129  0.44664913  0.00004782     2.84300
O1890       O  0.95965808  0.47295029  0.03126114    -1.07700
O1891       O  0.51464412  0.47183158  0.96851044    -1.08400
C1892       C  0.99168854  0.42998800  0.91773032     1.07000
C1893       C  0.98103624  0.43096569  0.08222851     1.07000
C1894       C  0.55029339  0.43048589  0.00325185     1.10000
C1895       C  0.92265305  0.43281429  0.99583929     1.07700
H1896       H  0.52097877  0.46068337  0.05019895     0.33300
O1897       O  0.51106925  0.47206536  0.03599878    -1.28600
H1898       H  0.95282561  0.46115648  0.95032945     0.33000
O1899       O  0.96297680  0.47246138  0.96433506    -1.30300
O1900       O  0.98196113  0.04247479  0.09342662    -0.86100
O1901       O  0.99144492  0.04133984  0.90615519    -0.87600
O1902       O  0.55746728  0.49609698  0.05859902    -0.86100
O1903       O  0.91184884  0.49977481  0.04661481    -0.86200
O1904       O  0.91716375  0.49802580  0.94148307    -0.85900
O1905       O  0.56228319  0.50017495  0.95363813    -0.85700
O1906       O  0.52934131  0.07213871  0.00511522    -0.86100
O1907       O  0.94651365  0.07378709  0.99522419    -0.85600
O1908       O  0.55970479  0.04011175  0.01059602    -0.86600
O1909       O  0.91583663  0.04213533  0.99085727    -0.85800
O1910       O  0.52517313  0.49798879  0.09676982    -0.86200
O1911       O  0.53498304  0.99728524  0.91024975    -0.85900
O1912       O  0.94915086  0.99596610  0.90333293    -0.85500
O1913       O  0.94002009  0.49767175  0.08941018    -0.86000
O1914       O  0.98485423  0.07319541  0.05286986    -0.86200
O1915       O  0.99109642  0.07264244  0.94677927    -0.87600
Zr1916     Zr  0.98377639  0.49880450  0.06728763     2.83100
Zr1917     Zr  0.99075041  0.49792622  0.93241457     2.83500
Zr1918     Zr  0.53834509  0.49795232  0.00441497     2.84100
Zr1919     Zr  0.93618733  0.49939760  0.99566082     2.83400
Zr1920     Zr  0.98764565  0.05119150  0.99982604     2.84200
O1921       O  0.96376745  0.02496861  0.96404857    -1.08200
O1922       O  0.51124210  0.02469814  0.03546013    -1.07700
C1923       C  0.98278466  0.06653697  0.08324352     1.07000
C1924       C  0.99179614  0.06537080  0.91653246     1.09600
C1925       C  0.54908649  0.49675854  0.08825399     1.07200
C1926       C  0.91704940  0.49849416  0.07745648     1.07500
C1927       C  0.92515898  0.99616496  0.91172152     1.07100
C1928       C  0.55783959  0.99886218  0.92268543     1.06700
C1929       C  0.55259205  0.06434869  0.00964406     1.07100
C1930       C  0.92304038  0.06630271  0.99187335     1.06600
H1931       H  0.52622593  0.03531316  0.95633147     0.33300
O1932       O  0.51469968  0.02435301  0.96861043    -1.29300
H1933       H  0.94857249  0.03671526  0.04374221     0.33300
O1934       O  0.96004444  0.02551777  0.03140045    -1.30600
N1935       N  0.77511277  0.24907811  0.00006941    -0.36200
N1936       N  0.73811581  0.28970713  0.01450455    -0.56800
N1937       N  0.69883474  0.25001965  0.02264569    -0.36200
N1938       N  0.73581967  0.20937300  0.00470574    -0.56800
C1939       C  0.78846599  0.27069452  0.99169035     0.27400
C1940       C  0.78758737  0.22826071  0.98725512     0.27400
C1941       C  0.68406926  0.27181500  0.02276550     0.27400
C1942       C  0.68299407  0.22925641  0.01965193     0.27400
C1943       C  0.75965001  0.30417406  0.01620273     0.36000
C1944       C  0.71882196  0.30520516  0.02487150     0.36000
C1945       C  0.75627042  0.19339746  0.00094993     0.36000
C1946       C  0.71575739  0.19385695  0.01217370     0.36000
C1947       C  0.80956437  0.26347960  0.97314148    -0.21500
C1948       C  0.80920438  0.23665265  0.97076938    -0.21500
C1949       C  0.65848714  0.26467223  0.02134830    -0.21500
C1950       C  0.65780820  0.23787535  0.01951325    -0.21500
C1951       C  0.75406113  0.32888664  0.02846069    -0.22500
C1952       C  0.72806647  0.32977673  0.03301485    -0.22500
C1953       C  0.74908036  0.16754450  0.00532508    -0.22500
C1954       C  0.72334766  0.16781293  0.01219517    -0.22500
C1955       C  0.78347578  0.29643807  0.00290999    -0.17900
C1956       C  0.78107748  0.20176809  0.99213973    -0.17900
C1957       C  0.69040721  0.20265229  0.01742774    -0.17900
C1958       C  0.69279158  0.29805082  0.02438787    -0.17900
H1959       H  0.82416671  0.27616550  0.96317755     0.15000
H1960       H  0.82336076  0.22467233  0.95850839     0.15000
H1961       H  0.64192342  0.27741055  0.02166518     0.15000
H1962       H  0.64063035  0.22613508  0.01792455     0.15000
H1963       H  0.76712237  0.34503874  0.03222812     0.13300
H1964       H  0.71729207  0.34665702  0.04118535     0.13300
H1965       H  0.76103079  0.15028872  0.00329206     0.13300
H1966       H  0.71157202  0.15077291  0.01666964     0.13300
H1967       H  0.76060806  0.24823589  0.01734400     0.26600
H1968       H  0.71838508  0.24914833  0.02644316     0.26600
C1969       C  0.53531381  0.25060397  0.26904809     0.86900
C1970       C  0.53011723  0.22583536  0.24806596    -0.53300
C1971       C  0.00706507  0.22539429  0.23219434     0.09800
C1972       C  0.99029209  0.24941664  0.24037881     0.20800
C1973       C  0.52979161  0.27385322  0.24626502    -0.54100
C1974       C  0.00656195  0.27351180  0.23051110     0.09900
C1975       C  0.01264065  0.25042866  0.29285588    -0.53600
C1976       C  0.98919754  0.25023661  0.27832726     0.10500
H1977       H  0.54219265  0.20869773  0.24733258     0.15000
H1978       H  0.97150367  0.24820407  0.22829792     0.00800
H1979       H  0.54325377  0.28988629  0.24392485     0.15300
H1980       H  0.01487899  0.25049240  0.31923999     0.15100
C1981       C  0.71195416  0.49940065  0.22725603     0.86900
C1982       C  0.71563839  0.47484808  0.24863740    -0.53300
C1983       C  0.73786098  0.47401324  0.26623429     0.09800
C1984       C  0.75520096  0.49818351  0.26024280     0.20800
C1985       C  0.71586819  0.02268068  0.25047959    -0.54100
C1986       C  0.73827320  0.02242431  0.26780114     0.09900
C1987       C  0.73634232  0.49875688  0.20583159    -0.53600
C1988       C  0.75890448  0.49868407  0.22281274     0.10500
H1989       H  0.70208820  0.45879902  0.24912414     0.15000
H1990       H  0.77346185  0.49771325  0.27405741     0.00800
H1991       H  0.70201681  0.03846955  0.25261902     0.15300
H1992       H  0.73621369  0.49727752  0.17942649     0.15100
C1993       C  0.53339670  0.24733674  0.72609362     0.86900
C1994       C  0.52992565  0.27124998  0.74868704    -0.53300
C1995       C  0.00812751  0.27113308  0.76708714     0.09800
C1996       C  0.99064742  0.24727022  0.76006846     0.20800
C1997       C  0.53006290  0.22349290  0.74829832    -0.54100
C1998       C  0.00782747  0.22282361  0.76582838     0.09900
C1999       C  0.00866210  0.24845156  0.70528766    -0.53600
C2000       C  0.98618824  0.24813688  0.72257576     0.10500
H2001       H  0.54284754  0.28782962  0.74924793     0.15000
H2002       H  0.97273101  0.24739437  0.77457679     0.00800
H2003       H  0.54434216  0.20806202  0.74977558     0.15300
H2004       H  0.00880893  0.25008587  0.67891136     0.15100
C2005       C  0.71846210  0.49847305  0.77607543     0.86900
C2006       C  0.71966387  0.02195612  0.75261992    -0.53300
C2007       C  0.74026588  0.02251217  0.73204619     0.09800
C2008       C  0.75796330  0.49842648  0.73624330     0.20800
C2009       C  0.71941720  0.47494272  0.75229332    -0.54100
C2010       C  0.74023105  0.47445203  0.73214911     0.09900
C2011       C  0.74454183  0.49830872  0.79330246    -0.53600
C2012       C  0.76534086  0.49858128  0.77285742     0.10500
H2013       H  0.70510936  0.03701483  0.75193781     0.15000
H2014       H  0.77443099  0.49817275  0.71921000     0.00800
H2015       H  0.70485138  0.45987907  0.75092706     0.15300
H2016       H  0.74635403  0.49834060  0.81973252     0.15100
C2017       C  0.60382969  0.47403208  0.14293695    -0.05100
C2018       C  0.61330939  0.49815754  0.15482569     0.09100
C2019       C  0.59999908  0.02152469  0.14716208    -0.02400
C2020       C  0.57838135  0.02090389  0.12638680    -0.00700
C2021       C  0.56912018  0.49683443  0.11416894    -0.04300
C2022       C  0.58160394  0.47334407  0.12317049     0.02700
C2023       C  0.63807559  0.49919658  0.17381340     0.09500
C2024       C  0.60904443  0.04638011  0.15987964     0.35400
C2025       C  0.57183992  0.44842845  0.11167021     0.38900
C2026       C  0.66012345  0.51004484  0.15948877    -0.04700
C2027       C  0.68303822  0.51257746  0.17760039     0.02500
C2028       C  0.68562268  0.50087255  0.20906579    -0.04300
C2029       C  0.66253385  0.49211386  0.22429100    -0.00500
C2030       C  0.63927952  0.49070580  0.20650533    -0.03100
C2031       C  0.65927354  0.51852728  0.12565531     0.36200
C2032       C  0.66181947  0.48588096  0.25883865     0.39800
C2033       C  0.70223793  0.53017667  0.16480807     0.38900
C2034       C  0.61644171  0.48031509  0.22187367     0.35900
C2035       C  0.61762433  0.45001685  0.14993535     0.36500
C2036       C  0.56647946  0.04520937  0.11607200     0.39800
N2037       N  0.71677008  0.54468008  0.15364757    -0.38300
N2038       N  0.65857162  0.52510565  0.09863396    -0.39900
N2039       N  0.66099543  0.48059351  0.28629852    -0.37600
N2040       N  0.59829863  0.47176186  0.23400314    -0.40000
N2041       N  0.61632835  0.06623262  0.16989034    -0.39800
N2042       N  0.55709927  0.06457268  0.10755704    -0.37400
N2043       N  0.56410925  0.42838810  0.10291347    -0.38500
N2044       N  0.62876332  0.43094498  0.15555494    -0.40100
C2045       C  0.81261757  0.02054259  0.16567873    -0.05100
C2046       C  0.82951189  0.49904165  0.16704711     0.09100
C2047       C  0.82448476  0.47840843  0.18897171    -0.02400
C2048       C  0.80220398  0.47881334  0.20861573    -0.00700
C2049       C  0.78425903  0.49945966  0.20558215    -0.04300
C2050       C  0.79013599  0.02077740  0.18478077     0.02700
C2051       C  0.85237130  0.49802446  0.14482869     0.09500
C2052       C  0.84225000  0.45662446  0.19102056     0.35400
C2053       C  0.77430639  0.04411725  0.18525735     0.38900
C2054       C  0.87525148  0.01088783  0.15338062    -0.04700
C2055       C  0.89638174  0.01085271  0.13175676     0.02500
C2056       C  0.89478329  0.49808046  0.10089698    -0.04300
C2057       C  0.87139077  0.48547499  0.09239755    -0.00500
C2058       C  0.85057915  0.48522197  0.11442940    -0.03100
C2059       C  0.87673161  0.02475690  0.18429138     0.36200
C2060       C  0.86804543  0.47300945  0.06081887     0.39800
C2061       C  0.91919842  0.02526199  0.14091458     0.38900
C2062       C  0.82689983  0.47215054  0.10559126     0.35900
C2063       C  0.81857108  0.04256815  0.14469201     0.36500
C2064       C  0.79821932  0.45801094  0.23201041     0.39800
N2065       N  0.93730854  0.03682454  0.14841811    -0.38300
N2066       N  0.87774032  0.03593103  0.20888407    -0.39900
N2067       N  0.86462870  0.46331607  0.03561444    -0.37600
N2068       N  0.80799388  0.46176352  0.09865012    -0.40000
N2069       N  0.85644146  0.43925207  0.19252134    -0.39800
N2070       N  0.79615942  0.44127590  0.25082081    -0.37400
N2071       N  0.76238471  0.06320871  0.18636663    -0.38500
N2072       N  0.82350536  0.06015444  0.12806875    -0.40100
C2073       C  0.96793431  0.32794468  0.18645635    -0.05100
C2074       C  0.98728256  0.34021338  0.16816943     0.09100
C2075       C  0.51170484  0.32869080  0.16672017    -0.02400
C2076       C  0.51747448  0.30628444  0.18551301    -0.00700
C2077       C  0.99877755  0.29491590  0.20654150    -0.04300
C2078       C  0.97334713  0.30513141  0.20491652     0.02700
C2079       C  0.98188161  0.36442735  0.14849831     0.09500
C2080       C  0.53085499  0.33969952  0.14503264     0.35400
C2081       C  0.95205198  0.29238038  0.22086909     0.38900
C2082       C  0.99081515  0.38905790  0.15918541    -0.04700
C2083       C  0.98987513  0.41104658  0.13821092     0.02500
C2084       C  0.97923007  0.40878730  0.10638654    -0.04300
C2085       C  0.46855026  0.38420816  0.09686401    -0.00500
C2086       C  0.47018235  0.36224930  0.11767554    -0.03100
C2087       C  0.00156103  0.39153021  0.19171444     0.36200
C2088       C  0.45615923  0.38081929  0.06541212     0.39800
C2089       C  0.00138958  0.43541443  0.14899863     0.38900
C2090       C  0.46052203  0.33698223  0.10696173     0.35900
C2091       C  0.94220667  0.33871105  0.18583190     0.36500
C2092       C  0.54260537  0.29456139  0.18167027     0.39800
N2093       N  0.01065883  0.45479570  0.15768209    -0.38300
N2094       N  0.01001321  0.39345623  0.21773767    -0.39900
N2095       N  0.44640382  0.37734097  0.04040313    -0.37600
N2096       N  0.45280683  0.31681424  0.09859930    -0.40000
N2097       N  0.54600941  0.34842474  0.12758587    -0.39800
N2098       N  0.56287410  0.28575642  0.17857942    -0.37400
N2099       N  0.93423264  0.28262506  0.23238633    -0.38500
N2100       N  0.92164358  0.34712021  0.18515217    -0.40100
C2101       C  0.51375227  0.17201542  0.16647354    -0.05100
C2102       C  0.99114880  0.15738084  0.17052892     0.09100
C2103       C  0.97253657  0.16627643  0.19291167    -0.02400
C2104       C  0.97665020  0.18935882  0.21157198    -0.00700
C2105       C  0.00004388  0.20332222  0.20900727    -0.04300
C2106       C  0.51786298  0.19513074  0.18485092     0.02700
C2107       C  0.98655532  0.13327164  0.14992612     0.09500
C2108       C  0.94929472  0.15119437  0.19720181     0.35400
C2109       C  0.53955564  0.21157847  0.17691163     0.38900
C2110       C  0.99624760  0.10869390  0.15962652    -0.04700
C2111       C  0.99379483  0.08647711  0.13898790     0.02500
C2112       C  0.98177776  0.08864442  0.10793681    -0.04300
C2113       C  0.97029671  0.11306059  0.09962169    -0.00500
C2114       C  0.97312736  0.13521646  0.12017275    -0.03100
C2115       C  0.00926236  0.10648861  0.19078450     0.36200
C2116       C  0.45490670  0.11554574  0.07027812     0.39800
C2117       C  0.00413335  0.06163002  0.14988289     0.38900
C2118       C  0.46265441  0.16035054  0.11039720     0.35900
C2119       C  0.53299389  0.16296606  0.14352827     0.36500
C2120       C  0.95615440  0.19882958  0.23219836     0.39800
N2121       N  0.01223574  0.04183045  0.15895547    -0.38300
N2122       N  0.01964182  0.10487121  0.21567058    -0.39900
N2123       N  0.44245179  0.11784565  0.04708310    -0.37600
N2124       N  0.45440394  0.18045659  0.10268887    -0.40000
N2125       N  0.93087304  0.13898319  0.20073073    -0.39800
N2126       N  0.93891186  0.20613067  0.24743229    -0.37400
N2127       N  0.55659608  0.22485221  0.16988045    -0.38500
N2128       N  0.54833773  0.15541197  0.12543500    -0.40100
C2129       C  0.61187120  0.39446010  0.98683157    -0.05100
C2130       C  0.61062752  0.37369158  0.00956540     0.09100
C2131       C  0.58793485  0.36987407  0.02773858    -0.02400
C2132       C  0.56825846  0.38870982  0.02649433    -0.00700
C2133       C  0.56982297  0.40956569  0.00392886    -0.04300
C2134       C  0.59042004  0.41049295  0.98188839     0.02700
C2135       C  0.63263384  0.35520541  0.01333010     0.09500
C2136       C  0.58460324  0.34633220  0.04708432     0.35400
C2137       C  0.58780331  0.42486332  0.95159832     0.38900
C2138       C  0.64518712  0.35267036  0.04381513    -0.04700
C2139       C  0.66465870  0.33381814  0.04784845     0.02500
C2140       C  0.67326184  0.31918105  0.02071950    -0.04300
C2141       C  0.66185562  0.32301758  0.98979586    -0.00500
C2142       C  0.64073875  0.33983457  0.98651816    -0.03100
C2143       C  0.63797550  0.36938639  0.07103708     0.36200
C2144       C  0.67159021  0.30917403  0.96137461     0.39800
C2145       C  0.67546147  0.32913486  0.07993298     0.38900
C2146       C  0.62691948  0.34071296  0.95575252     0.35900
C2147       C  0.63508919  0.39951318  0.96851866     0.36500
C2148       C  0.54663940  0.38654537  0.04850953     0.39800
N2149       N  0.68400153  0.32542728  0.10559602    -0.38300
N2150       N  0.63208962  0.38273832  0.09266006    -0.39900
N2151       N  0.67941849  0.29825365  0.93867549    -0.37600
N2152       N  0.61592677  0.34157137  0.93123054    -0.40000
N2153       N  0.58185966  0.32741745  0.06220659    -0.39800
N2154       N  0.52951494  0.38472786  0.06625251    -0.37400
N2155       N  0.58505260  0.43505580  0.92662749    -0.38500
N2156       N  0.65359167  0.40360138  0.95389057    -0.40100
C2157       C  0.87720273  0.38053021  0.96561936    -0.05100
C2158       C  0.86314778  0.37536039  0.99439037     0.09100
C2159       C  0.86918394  0.38878194  0.02362515    -0.02400
C2160       C  0.88984655  0.40629517  0.02443594    -0.00700
C2161       C  0.90276722  0.41258483  0.99535212    -0.04300
C2162       C  0.89663131  0.39960844  0.96595675     0.02700
C2163       C  0.84311587  0.35458131  0.99479726     0.09500
C2164       C  0.85412373  0.38454516  0.05290912     0.35400
C2165       C  0.91035710  0.40590880  0.93617312     0.38900
C2166       C  0.84733322  0.33150831  0.01297935    -0.04700
C2167       C  0.82765565  0.31298820  0.01640611     0.02500
C2168       C  0.80423002  0.31642708  0.99961952    -0.04300
C2169       C  0.80070788  0.33871192  0.97959185    -0.00500
C2170       C  0.81964397  0.35827706  0.97838058    -0.03100
C2171       C  0.87188953  0.32706667  0.02864539     0.36200
C2172       C  0.77749205  0.34161404  0.96045823     0.39800
C2173       C  0.83154794  0.29044690  0.03740114     0.38900
C2174       C  0.81458223  0.38260089  0.96128048     0.35900
C2175       C  0.87197540  0.36600191  0.93587553     0.36500
C2176       C  0.89871337  0.41677954  0.05543415     0.39800
N2177       N  0.83477126  0.27237265  0.05391941    -0.38300
N2178       N  0.89144957  0.32372319  0.04122285    -0.39900
N2179       N  0.75882090  0.34387737  0.94552135    -0.37600
N2180       N  0.81037410  0.40205088  0.94782857    -0.40000
N2181       N  0.84206838  0.38117551  0.07622316    -0.39800
N2182       N  0.90607470  0.42482615  0.08016120    -0.37400
N2183       N  0.92129101  0.41107685  0.91247099    -0.38500
N2184       N  0.86788890  0.35447396  0.91206840    -0.40100
C2185       C  0.82720744  0.15054677  0.95769765    -0.05100
C2186       C  0.84299202  0.14594997  0.98509369     0.09100
C2187       C  0.83877630  0.16003016  0.01429790    -0.02400
C2188       C  0.81831037  0.17787438  0.01655215    -0.00700
C2189       C  0.80209562  0.18203686  0.98946830    -0.04300
C2190       C  0.80683734  0.16868209  0.95983707     0.02700
C2191       C  0.86314378  0.12512148  0.98432574     0.09500
C2192       C  0.85565756  0.15613373  0.04201712     0.35400
C2193       C  0.79103054  0.17400952  0.93152248     0.38900
C2194       C  0.88763635  0.13032822  0.97160000    -0.04700
C2195       C  0.90717613  0.11119926  0.97355024     0.02500
C2196       C  0.90252592  0.08682974  0.98927297    -0.04300
C2197       C  0.87773562  0.08200132  0.00225949    -0.00500
C2198       C  0.85810473  0.10073292  0.99888109    -0.03100
C2199       C  0.89268403  0.15556298  0.95670381     0.36200
C2200       C  0.87231924  0.05836295  0.02064131     0.39800
C2201       C  0.93181902  0.11680268  0.95887455     0.38900
C2202       C  0.83251190  0.09503120  0.01067102     0.35900
C2203       C  0.83199907  0.13660379  0.92742249     0.36500
C2204       C  0.81392791  0.19207983  0.04678195     0.39800
N2205       N  0.95138547  0.12165141  0.94714957    -0.38300
N2206       N  0.89658104  0.17572006  0.94483570    -0.39900
N2207       N  0.86766123  0.03968374  0.03544358    -0.37600
N2208       N  0.81206338  0.09049861  0.01985983    -0.40000
N2209       N  0.86923604  0.15299579  0.06399871    -0.39800
N2210       N  0.81042839  0.20345128  0.07085841    -0.37400
N2211       N  0.77848126  0.17842090  0.90889599    -0.38500
N2212       N  0.83596572  0.12552534  0.90324959    -0.40100
C2213       C  0.58540155  0.12883490  0.03258966    -0.05100
C2214       C  0.61032692  0.12448823  0.02080186     0.09100
C2215       C  0.61672196  0.10023156  0.00665492    -0.02400
C2216       C  0.59774579  0.08111643  0.00176494    -0.00700
C2217       C  0.57267418  0.08491119  0.01416717    -0.04300
C2218       C  0.56695535  0.10875790  0.03061262     0.02700
C2219       C  0.62963578  0.14593036  0.02081355     0.09500
C2220       C  0.64289706  0.09533136  0.99634392     0.35400
C2221       C  0.54231768  0.11288637  0.04599629     0.38900
C2222       C  0.64304481  0.15239486  0.04962860    -0.04700
C2223       C  0.66264120  0.17129265  0.04868227     0.02500
C2224       C  0.66967543  0.18272161  0.01865500    -0.04300
C2225       C  0.65628272  0.17620121  0.98985337    -0.00500
C2226       C  0.63587634  0.15834362  0.99108899    -0.03100
C2227       C  0.63714729  0.13904076  0.07992722     0.36200
C2228       C  0.66358554  0.18789342  0.95897075     0.39800
C2229       C  0.67558402  0.17905890  0.07849031     0.38900
C2230       C  0.62138867  0.15245161  0.96172464     0.35900
C2231       C  0.57852080  0.15429351  0.04577220     0.36500
C2232       C  0.60384397  0.05882782  0.98136743     0.39800
N2233       N  0.68583059  0.18542883  0.10227199    -0.38300
N2234       N  0.63249280  0.12823796  0.10402344    -0.39900
N2235       N  0.66950089  0.19716405  0.93433943    -0.37600
N2236       N  0.60974942  0.14767980  0.93841039    -0.40000
N2237       N  0.66384357  0.09167196  0.98839545    -0.39800
N2238       N  0.60924885  0.04165348  0.96429710    -0.37400
N2239       N  0.52282072  0.11663355  0.05850114    -0.38500
N2240       N  0.57290656  0.17466397  0.05596934    -0.40100
C2241       C  0.82222957  0.01951230  0.82560776    -0.05100
C2242       C  0.84022749  0.49967677  0.81870437     0.09100
C2243       C  0.83519433  0.48173148  0.79329104    -0.02400
C2244       C  0.81163446  0.48257855  0.77625390    -0.00700
C2245       C  0.79222606  0.50042502  0.78592255    -0.04300
C2246       C  0.79838551  0.01988912  0.80942299     0.02700
C2247       C  0.86316069  0.49631228  0.84046977     0.09500
C2248       C  0.85403503  0.46183412  0.78537856     0.35400
C2249       C  0.78067060  0.04111225  0.81611090     0.38900
C2250       C  0.86022778  0.48342902  0.87056941    -0.04700
C2251       C  0.88069112  0.48227222  0.89302610     0.02500
C2252       C  0.90470011  0.49414376  0.88570980    -0.04300
C2253       C  0.90812111  0.00500076  0.85404293    -0.00500
C2254       C  0.88733277  0.00636542  0.83181568    -0.03100
C2255       C  0.83583162  0.47135516  0.87843181     0.36200
C2256       C  0.93280371  0.01512253  0.84409490     0.39800
C2257       C  0.87664204  0.46825202  0.92337332     0.38900
C2258       C  0.89065932  0.01844730  0.80009263     0.35900
C2259       C  0.82814156  0.03936369  0.84987550     0.36500
C2260       C  0.80807020  0.46532596  0.74854509     0.39800
N2261       N  0.87262818  0.45705878  0.94736658    -0.38300
N2262       N  0.81637748  0.46172192  0.88447975    -0.39900
N2263       N  0.95254878  0.02295777  0.83591005    -0.37600
N2264       N  0.89332493  0.02800831  0.77471967    -0.40000
N2265       N  0.86903324  0.44591378  0.77909453    -0.39800
N2266       N  0.80649212  0.45179204  0.72592703    -0.37400
N2267       N  0.76683786  0.05827727  0.82154557    -0.38500
N2268       N  0.83280129  0.05529862  0.86912045    -0.40100
C2269       C  0.66104205  0.47599265  0.83001279    -0.05100
C2270       C  0.64921870  0.49999460  0.83809311     0.09100
C2271       C  0.66184464  0.02350225  0.83029783    -0.02400
C2272       C  0.68525868  0.02307649  0.81290731    -0.00700
C2273       C  0.69548025  0.49904164  0.80050073    -0.04300
C2274       C  0.68456626  0.47552681  0.81290855     0.02700
C2275       C  0.62564891  0.50036825  0.85934870     0.09500
C2276       C  0.65104504  0.04824312  0.84116233     0.35400
C2277       C  0.69870143  0.45110652  0.81197190     0.38900
C2278       C  0.62794972  0.99468466  0.89280683    -0.04700
C2279       C  0.60609576  0.99336505  0.91298237     0.02500
C2280       C  0.58115830  0.49925113  0.90038393    -0.04300
C2281       C  0.57928139  0.50619730  0.86672406    -0.00500
C2282       C  0.60133115  0.50639213  0.84643734    -0.03100
C2283       C  0.65323505  0.99059429  0.90669721     0.36200
C2284       C  0.55496919  0.51396191  0.85265099     0.39800
C2285       C  0.61003080  0.98541178  0.94668629     0.38900
C2286       C  0.59914576  0.51320279  0.81216442     0.35900
C2287       C  0.64925120  0.45161206  0.84021018     0.36500
C2288       C  0.69964359  0.04729188  0.81095608     0.39800
N2289       N  0.61350977  0.97919378  0.97350744    -0.38300
N2290       N  0.67340420  0.98750132  0.91770025    -0.39900
N2291       N  0.53567459  0.52022491  0.84116867    -0.37600
N2292       N  0.59752605  0.51877333  0.78485208    -0.40000
N2293       N  0.64239156  0.06796688  0.84974291    -0.39800
N2294       N  0.71071754  0.06686656  0.80948479    -0.37400
N2295       N  0.70971693  0.43143821  0.81203732    -0.38500
N2296       N  0.63987707  0.43219770  0.84845136    -0.40100
C2297       C  0.51658318  0.12318819  0.86709055    -0.05100
C2298       C  0.99424289  0.13141821  0.85053291     0.09100
C2299       C  0.97139258  0.11700212  0.85451195    -0.02400
C2300       C  0.97077738  0.09487393  0.87528758    -0.00700
C2301       C  0.99306802  0.08681471  0.89200523    -0.04300
C2302       C  0.51600633  0.10099123  0.88770245     0.02700
C2303       C  0.99511463  0.15492636  0.82831713     0.09500
C2304       C  0.94842556  0.12521570  0.83754347     0.35400
C2305       C  0.53902094  0.09276057  0.90468958     0.38900
C2306       C  0.50069175  0.15167332  0.79490992    -0.04700
C2307       C  0.50344340  0.17371023  0.77435972     0.02500
C2308       C  0.00140338  0.19956642  0.78711809    -0.04300
C2309       C  0.99446864  0.20266724  0.82037781    -0.00500
C2310       C  0.99111462  0.18044603  0.84069933    -0.03100
C2311       C  0.50368637  0.12545106  0.78168069     0.36200
C2312       C  0.99138329  0.22856681  0.83431187     0.39800
C2313       C  0.50745355  0.16943795  0.73972743     0.38900
C2314       C  0.98351598  0.18376737  0.87451575     0.35900
C2315       C  0.54016297  0.13775502  0.86310037     0.36500
C2316       C  0.94692624  0.08108140  0.88074785     0.39800
N2317       N  0.51051108  0.16544683  0.71218426    -0.38300
N2318       N  0.50603336  0.10452802  0.77115726    -0.39900
N2319       N  0.98857567  0.24896748  0.84615342    -0.37600
N2320       N  0.97723638  0.18639322  0.90143127    -0.40000
N2321       N  0.93010051  0.13179323  0.82396774    -0.39800
N2322       N  0.92791961  0.07014666  0.88552732    -0.37400
N2323       N  0.55735139  0.08615176  0.91824900    -0.38500
N2324       N  0.55897831  0.14940076  0.85998783    -0.40100
C2325       C  0.50553866  0.38767461  0.84124770    -0.05100
C2326       C  0.99661237  0.36288880  0.85122644     0.09100
C2327       C  0.98566334  0.36011756  0.88237105    -0.02400
C2328       C  0.98350134  0.38185484  0.90357719    -0.00700
C2329       C  0.99276201  0.40709478  0.89409825    -0.04300
C2330       C  0.50395577  0.40957893  0.86256409     0.02700
C2331       C  0.99923612  0.33919653  0.82954079     0.09500
C2332       C  0.97689382  0.33445506  0.89279120     0.35400
C2333       C  0.51521614  0.43417972  0.85234819     0.38900
C2334       C  0.51961241  0.32148998  0.83440114    -0.04700
C2335       C  0.52099841  0.29810635  0.81601130     0.02500
C2336       C  0.00297168  0.29287073  0.79101152    -0.04300
C2337       C  0.98192633  0.31003572  0.78720322    -0.00500
C2338       C  0.97998287  0.33296273  0.80662423    -0.03100
C2339       C  0.53903848  0.32721586  0.85870537     0.36200
C2340       C  0.96202832  0.30422497  0.76371873     0.39800
C2341       C  0.53969222  0.27834083  0.82480009     0.38900
C2342       C  0.95794831  0.35005630  0.80350377     0.35900
C2343       C  0.51686392  0.39046071  0.80911324     0.36500
C2344       C  0.97173493  0.37748399  0.93523554     0.39800
N2345       N  0.55400013  0.26227949  0.83281916    -0.38300
N2346       N  0.55457797  0.33178547  0.87803026    -0.39900
N2347       N  0.94555601  0.30003037  0.74558481    -0.37600
N2348       N  0.94034151  0.36370262  0.80132036    -0.40000
N2349       N  0.97010412  0.31393981  0.90102508    -0.39800
N2350       N  0.96255122  0.37346505  0.96045303    -0.37400
N2351       N  0.52437113  0.45372282  0.84416665    -0.38500
N2352       N  0.52586604  0.39269548  0.78344903    -0.40100
C2353       C  0.91702015  0.23104820  0.69727854    -0.05100
C2354       C  0.91244388  0.24887021  0.67162590     0.09100
C2355       C  0.93144254  0.26744208  0.66386469    -0.02400
C2356       C  0.95508696  0.26768918  0.68084025    -0.00700
C2357       C  0.96023314  0.24914780  0.70596642    -0.04300
C2358       C  0.94066631  0.23109425  0.71425683     0.02700
C2359       C  0.88839603  0.24697641  0.65123731     0.09500
C2360       C  0.92668073  0.28613048  0.63787961     0.35400
C2361       C  0.94480385  0.21158259  0.73931716     0.38900
C2362       C  0.86848278  0.26560872  0.65446795    -0.04700
C2363       C  0.84706668  0.26493451  0.63324062     0.02500
C2364       C  0.84500830  0.24521570  0.60907643    -0.04300
C2365       C  0.86422198  0.22570902  0.60715694    -0.00500
C2366       C  0.88600498  0.22692201  0.62758384    -0.03100
C2367       C  0.87026695  0.28583022  0.67925043     0.36200
C2368       C  0.86136949  0.20391625  0.58466505     0.39800
C2369       C  0.82777462  0.28532679  0.63519245     0.38900
C2370       C  0.90645602  0.20795009  0.62353264     0.35900
C2371       C  0.89738698  0.21222973  0.70589270     0.36500
C2372       C  0.97376175  0.28763140  0.67272183     0.39800
N2373       N  0.81237101  0.30159480  0.63654562    -0.38300
N2374       N  0.87157810  0.30204739  0.69897140    -0.39900
N2375       N  0.85919714  0.18622451  0.56717895    -0.37600
N2376       N  0.92284923  0.19291812  0.62025042    -0.40000
N2377       N  0.92260467  0.30099975  0.61721497    -0.39800
N2378       N  0.98861942  0.30350631  0.66595977    -0.37400
N2379       N  0.94711933  0.19572121  0.75923542    -0.38500
N2380       N  0.88182633  0.19712667  0.71280359    -0.40100
C2381       C  0.63154393  0.26616309  0.62518924    -0.05100
C2382       C  0.62882645  0.24569252  0.64796866     0.09100
C2383       C  0.64807292  0.22635749  0.65038065    -0.02400
C2384       C  0.66958604  0.22709413  0.62944750    -0.00700
C2385       C  0.67196085  0.24723106  0.60593525    -0.04300
C2386       C  0.65304103  0.26702440  0.60441232     0.02700
C2387       C  0.60534778  0.24441870  0.66900721     0.09500
C2388       C  0.64544375  0.20546025  0.67407915     0.35400
C2389       C  0.65607987  0.28886077  0.58216397     0.38900
C2390       C  0.58341558  0.23126138  0.65790204    -0.04700
C2391       C  0.56087114  0.23091315  0.67699639     0.02500
C2392       C  0.55912985  0.24568038  0.70665182    -0.04300
C2393       C  0.58266370  0.25588097  0.71935930    -0.00500
C2394       C  0.60520792  0.25590870  0.70018461    -0.03100
C2395       C  0.58425362  0.21770416  0.62670799     0.36200
C2396       C  0.58517300  0.26445778  0.75292062     0.39800
C2397       C  0.54038501  0.21374366  0.66651082     0.38900
C2398       C  0.62868131  0.26733667  0.71278765     0.35900
C2399       C  0.61201912  0.28629496  0.62300415     0.36500
C2400       C  0.68864368  0.20649545  0.63129843     0.39800
N2401       N  0.52423493  0.20006210  0.65743472    -0.38300
N2402       N  0.58499652  0.20692657  0.60182958    -0.39900
N2403       N  0.58851986  0.27162586  0.77939503    -0.37600
N2404       N  0.64744329  0.27629301  0.72281112    -0.40000
N2405       N  0.64332100  0.18880768  0.69301677    -0.39800
N2406       N  0.70368892  0.18991409  0.63301001    -0.37400
N2407       N  0.65857167  0.30649452  0.56476966    -0.38500
N2408       N  0.59641743  0.30232853  0.62123109    -0.40100
C2409       C  0.76031370  0.13925611  0.65956388    -0.05100
C2410       C  0.75268618  0.11435885  0.64810994     0.09100
C2411       C  0.74642181  0.11112835  0.61488634    -0.02400
C2412       C  0.74626219  0.13275385  0.59362402    -0.00700
C2413       C  0.75493118  0.15780291  0.60440299    -0.04300
C2414       C  0.76206475  0.16071314  0.63778840     0.02700
C2415       C  0.74993581  0.09146383  0.67086980     0.09500
C2416       C  0.73999177  0.08523925  0.60247767     0.35400
C2417       C  0.77157474  0.18552954  0.65010117     0.38900
C2418       C  0.72558362  0.08036324  0.67591255    -0.04700
C2419       C  0.72314933  0.05626753  0.69225061     0.02500
C2420       C  0.74438890  0.04505929  0.70883396    -0.04300
C2421       C  0.76872473  0.05707344  0.70506654    -0.00500
C2422       C  0.77158214  0.07931921  0.68480736    -0.03100
C2423       C  0.70291015  0.09379771  0.66404295     0.36200
C2424       C  0.79102384  0.04743252  0.72224946     0.39800
C2425       C  0.69901200  0.04236026  0.68992687     0.38900
C2426       C  0.79689086  0.08961340  0.67799739     0.35900
C2427       C  0.76637508  0.14277647  0.69388604     0.36500
C2428       C  0.73601156  0.12877921  0.56102775     0.39800
N2429       N  0.67983002  0.03120946  0.68766906    -0.38300
N2430       N  0.68492695  0.10470366  0.65470097    -0.39900
N2431       N  0.80948169  0.04054839  0.73527447    -0.37600
N2432       N  0.81704452  0.09784205  0.67247360    -0.40000
N2433       N  0.73481342  0.06461425  0.59274888    -0.39800
N2434       N  0.72775842  0.12492788  0.53523886    -0.37400
N2435       N  0.77914821  0.20527623  0.66010887    -0.38500
N2436       N  0.77136643  0.14548109  0.72123175    -0.40100
C2437       C  0.77429613  0.38000013  0.62571874    -0.05100
C2438       C  0.75408626  0.38240600  0.64842399     0.09100
C2439       C  0.73602660  0.36185069  0.65091519    -0.02400
C2440       C  0.73764493  0.33965902  0.63017042    -0.00700
C2441       C  0.75751478  0.33756347  0.60690082    -0.04300
C2442       C  0.77599561  0.35777949  0.60515783     0.02700
C2443       C  0.75177571  0.40655430  0.66963783     0.09500
C2444       C  0.71547763  0.36366615  0.67460350     0.35400
C2445       C  0.79721125  0.35565393  0.58255236     0.38900
C2446       C  0.74476235  0.43099231  0.65594506    -0.04700
C2447       C  0.74198999  0.45343495  0.67606564     0.02500
C2448       C  0.74550733  0.45155293  0.71017578    -0.04300
C2449       C  0.75299693  0.42725922  0.72376169    -0.00500
C2450       C  0.75655864  0.40506004  0.70355850    -0.03100
C2451       C  0.74009369  0.43299504  0.62110767     0.36200
C2452       C  0.75832340  0.42537987  0.75846113     0.39800
C2453       C  0.73505697  0.47833604  0.66161335     0.38900
C2454       C  0.76557608  0.38069087  0.71763871     0.35900
C2455       C  0.79345468  0.40046395  0.62344276     0.36500
C2456       C  0.71808867  0.31960802  0.63181976     0.39800
N2457       N  0.72964882  0.49808685  0.64963399    -0.38300
N2458       N  0.73653602  0.43462278  0.59327916    -0.39900
N2459       N  0.76313373  0.42391186  0.78599116    -0.37600
N2460       N  0.77278218  0.36125141  0.72886830    -0.40000
N2461       N  0.69921223  0.36491193  0.69371414    -0.39800
N2462       N  0.70237053  0.30372749  0.63329364    -0.37400
N2463       N  0.81438855  0.35434589  0.56484747    -0.38500
N2464       N  0.80868440  0.41680422  0.62133632    -0.40100
C2465       C  0.85990407  0.11696922  0.50621668    -0.05100
C2466       C  0.88397662  0.12365787  0.49341194     0.09100
C2467       C  0.88884695  0.14927746  0.48270408    -0.02400
C2468       C  0.86932643  0.16816123  0.48349270    -0.00700
C2469       C  0.84490609  0.16182414  0.49658447    -0.04300
C2470       C  0.84042295  0.13594646  0.50811295     0.02700
C2471       C  0.90442679  0.10361394  0.49123542     0.09500
C2472       C  0.91422608  0.15627709  0.47123024     0.35400
C2473       C  0.81601074  0.12846259  0.52217629     0.38900
C2474       C  0.91085606  0.09259653  0.46068094    -0.04700
C2475       C  0.93106957  0.07455335  0.45850006     0.02500
C2476       C  0.94296512  0.06550853  0.48724695    -0.04300
C2477       C  0.93606887  0.07609675  0.51791993    -0.00500
C2478       C  0.91765168  0.09604437  0.51966781    -0.03100
C2479       C  0.89650088  0.09965128  0.43166519     0.36200
C2480       C  0.94825969  0.06676884  0.54756270     0.39800
C2481       C  0.93997313  0.06560014  0.42682255     0.38900
C2482       C  0.91276180  0.10933199  0.55042691     0.35900
C2483       C  0.85536803  0.09047592  0.51771987     0.36500
C2484       C  0.87462153  0.19375094  0.46968369     0.43600
N2485       N  0.94733003  0.05856809  0.40162322    -0.38300
N2486       N  0.88487869  0.10511587  0.40859515    -0.39900
N2487       N  0.95798675  0.05934216  0.57119705    -0.37600
N2488       N  0.90903799  0.12022105  0.57479571    -0.40000
N2489       N  0.93446334  0.16191809  0.46224637    -0.39800
N2490       N  0.87927588  0.21404001  0.45866388    -0.37400
N2491       N  0.79659652  0.12212106  0.53317880    -0.38500
N2492       N  0.85196631  0.06938033  0.52703917    -0.40100
C2493       C  0.63358686  0.14579315  0.51983669    -0.05100
C2494       C  0.63695560  0.12211353  0.50278510     0.09100
C2495       C  0.65963429  0.11738361  0.48516219    -0.02400
C2496       C  0.67845839  0.13696097  0.48312148    -0.00700
C2497       C  0.67542001  0.16073180  0.50070866    -0.04300
C2498       C  0.65309023  0.16466464  0.51979598     0.02700
C2499       C  0.61580382  0.10281857  0.50154320     0.09500
C2500       C  0.66330663  0.09243370  0.46870019     0.35400
C2501       C  0.65005417  0.18772773  0.54016694     0.38900
C2502       C  0.60107116  0.10058898  0.47281678    -0.04700
C2503       C  0.58148538  0.08189829  0.47096566     0.02500
C2504       C  0.57583267  0.06628049  0.49839602    -0.04300
C2505       C  0.59009822  0.06903469  0.52749263    -0.00500
C2506       C  0.61037078  0.08703936  0.52889775    -0.03100
C2507       C  0.60607311  0.11768626  0.44526971     0.36200
C2508       C  0.58400459  0.05314057  0.55578636     0.39800
C2509       C  0.56745096  0.07836330  0.44069864     0.38900
C2510       C  0.62577816  0.08921033  0.55827434     0.35900
C2511       C  0.60969997  0.15099631  0.53679361     0.36500
C2512       C  0.70023742  0.13287684  0.46169223     0.39800
N2513       N  0.55625881  0.07549328  0.41656529    -0.38300
N2514       N  0.61018004  0.13143369  0.42345971    -0.39900
N2515       N  0.57911762  0.04038383  0.57826432    -0.37600
N2516       N  0.63805515  0.09095702  0.58170962    -0.40000
N2517       N  0.66613980  0.07248898  0.45569439    -0.39800
N2518       N  0.71747526  0.12943968  0.44446579    -0.37400
N2519       N  0.64700562  0.20584803  0.55671810    -0.38500
N2520       N  0.59062541  0.15522246  0.55015178    -0.40100
C2521       C  0.63035716  0.34782165  0.48101140    -0.05100
C2522       C  0.63481529  0.37221962  0.49599386     0.09100
C2523       C  0.65861549  0.37771725  0.51049408    -0.02400
C2524       C  0.67766258  0.35835054  0.51149725    -0.00700
C2525       C  0.67350731  0.33376730  0.49611842    -0.04300
C2526       C  0.64990103  0.32895222  0.48002224     0.02700
C2527       C  0.61433976  0.39228811  0.49650425     0.09500
C2528       C  0.66346921  0.40342966  0.52442560     0.35400
C2529       C  0.64582835  0.30532704  0.46091853     0.38900
C2530       C  0.60187107  0.39835157  0.52613368    -0.04700
C2531       C  0.58315433  0.41806536  0.52685751     0.02500
C2532       C  0.57573801  0.43043041  0.49757448    -0.04300
C2533       C  0.58780256  0.42388748  0.46779455    -0.00500
C2534       C  0.60767163  0.40541905  0.46746169    -0.03100
C2535       C  0.60835914  0.38426794  0.55577680     0.36200
C2536       C  0.58024941  0.43678949  0.43772329     0.39800
C2537       C  0.57164420  0.42579528  0.55765561     0.38900
C2538       C  0.62162037  0.40028160  0.43745654     0.35900
C2539       C  0.60555538  0.34218349  0.46660101     0.36500
C2540       C  0.70114109  0.36385872  0.52919947     0.39800
N2541       N  0.56250125  0.43201133  0.58222412    -0.38300
N2542       N  0.61364834  0.37297313  0.57931638    -0.39900
N2543       N  0.57433345  0.44731805  0.41387732    -0.37600
N2544       N  0.63281436  0.39622860  0.41358428    -0.40000
N2545       N  0.66733907  0.42391133  0.53552535    -0.39800
N2546       N  0.71978572  0.36853027  0.54329483    -0.37400
N2547       N  0.64213873  0.28679815  0.44529452    -0.38500
N2548       N  0.58578438  0.33776211  0.45513316    -0.40100
C2549       C  0.88574530  0.35112511  0.51781675    -0.05100
C2550       C  0.88220530  0.37383245  0.49889191     0.09100
C2551       C  0.85893742  0.37811065  0.48248762    -0.02400
C2552       C  0.83944870  0.35919982  0.48387180    -0.00700
C2553       C  0.84297866  0.33603623  0.50247810    -0.04300
C2554       C  0.86596163  0.33259344  0.52037906     0.02700
C2555       C  0.90304325  0.39346920  0.49628784     0.09500
C2556       C  0.85524842  0.40194579  0.46378101     0.35400
C2557       C  0.86910340  0.31051198  0.54232960     0.38900
C2558       C  0.91995050  0.39269557  0.46947670    -0.04700
C2559       C  0.93983671  0.41115389  0.46716973     0.02500
C2560       C  0.94253651  0.43066355  0.49145017    -0.04300
C2561       C  0.92508724  0.43180343  0.51778735    -0.00500
C2562       C  0.90543857  0.41315301  0.52025091    -0.03100
C2563       C  0.91643562  0.37321289  0.44400287     0.36200
C2564       C  0.92713735  0.45246130  0.54205970     0.39800
C2565       C  0.95739373  0.41022144  0.43976853     0.38900
C2566       C  0.88732964  0.41444667  0.54706458     0.35900
C2567       C  0.90997613  0.34666399  0.53420142     0.36500
C2568       C  0.81613799  0.36364186  0.46539416     0.39800
N2569       N  0.97151531  0.40937087  0.41802647    -0.38300
N2570       N  0.91333659  0.35777947  0.42363410    -0.39900
N2571       N  0.92865447  0.46918860  0.56108567    -0.37600
N2572       N  0.87281135  0.41549162  0.56836441    -0.40000
N2573       N  0.85231054  0.42094755  0.44887937    -0.39800
N2574       N  0.79759176  0.36755495  0.45074595    -0.37400
N2575       N  0.87167074  0.29302534  0.55997619    -0.38500
N2576       N  0.92936307  0.34298901  0.54706167    -0.40100
C2577       C  0.62963389  0.23621678  0.37536375    -0.05100
C2578       C  0.62932000  0.25444946  0.34956538     0.09100
C2579       C  0.65097024  0.27039146  0.34421656    -0.02400
C2580       C  0.67250403  0.26865889  0.36512737    -0.00700
C2581       C  0.67298839  0.25018848  0.39088027    -0.04300
C2582       C  0.65152569  0.23356058  0.39528806     0.02700
C2583       C  0.60673606  0.25541703  0.32678808     0.09500
C2584       C  0.65104862  0.28852911  0.31702301     0.35400
C2585       C  0.65208888  0.21302855  0.41973722     0.38900
C2586       C  0.58740882  0.27438593  0.33056749    -0.04700
C2587       C  0.56518843  0.27359086  0.31072744     0.02500
C2588       C  0.56175350  0.25344510  0.28675931    -0.04300
C2589       C  0.58351014  0.23733293  0.27990312    -0.00500
C2590       C  0.60498099  0.23735365  0.30094883    -0.03100
C2591       C  0.59052962  0.29482725  0.35492697     0.36200
C2592       C  0.58627182  0.22323354  0.24943510     0.39800
C2593       C  0.54637254  0.29431794  0.31447363     0.38900
C2594       C  0.62584008  0.21899418  0.29561147     0.35900
C2595       C  0.60721250  0.22024847  0.38156430     0.36500
C2596       C  0.69371034  0.28653440  0.36066549     0.39800
N2597       N  0.53156495  0.31103738  0.31735759    -0.38300
N2598       N  0.59322010  0.31123534  0.37417422    -0.39900
N2599       N  0.58971657  0.21172320  0.22545269    -0.37600
N2600       N  0.64247817  0.20437685  0.29152992    -0.40000
N2601       N  0.65108148  0.30290713  0.29521067    -0.39800
N2602       N  0.71057469  0.30086347  0.35691937    -0.37400
N2603       N  0.65236739  0.19646315  0.43897414    -0.38500
N2604       N  0.58928485  0.20763861  0.38669710    -0.40100
C2605       C  0.87267269  0.23870594  0.34463920    -0.05100
C2606       C  0.89544397  0.25046918  0.35609266     0.09100
C2607       C  0.89540087  0.26282056  0.38687460    -0.02400
C2608       C  0.87276729  0.26415669  0.40559156    -0.00700
C2609       C  0.85006689  0.25109292  0.39528424    -0.04300
C2610       C  0.85028883  0.23843470  0.36434409     0.02700
C2611       C  0.91952921  0.25027153  0.33576571     0.09500
C2612       C  0.91896212  0.27389476  0.39967823     0.35400
C2613       C  0.82794197  0.22433649  0.35297230     0.38900
C2614       C  0.92873892  0.27375216  0.32173069    -0.04700
C2615       C  0.95216418  0.27396661  0.30452812     0.02500
C2616       C  0.96531783  0.25032757  0.29834635    -0.04300
C2617       C  0.95695499  0.22714414  0.31374359    -0.00500
C2618       C  0.93419915  0.22710708  0.33243513    -0.03100
C2619       C  0.91410755  0.29776523  0.32502286     0.36200
C2620       C  0.97222850  0.20348669  0.31095062     0.39800
C2621       C  0.96359846  0.29871607  0.29517712     0.38900
C2622       C  0.92619672  0.20336792  0.34885854     0.35900
C2623       C  0.87242001  0.22686727  0.31241081     0.36500
C2624       C  0.87311828  0.27990273  0.43510550     0.39800
N2625       N  0.97279921  0.31849156  0.28799694    -0.38300
N2626       N  0.90241024  0.31692251  0.32755446    -0.39900
N2627       N  0.98462227  0.18478591  0.30849165    -0.37600
N2628       N  0.91989491  0.18439813  0.36200074    -0.40000
N2629       N  0.93771627  0.28264119  0.41000615    -0.39800
N2630       N  0.87409851  0.29268720  0.45841830    -0.37400
N2631       N  0.81023397  0.21295451  0.34367568    -0.38500
N2632       N  0.87248598  0.21755716  0.28660846    -0.40100
C2633       C  0.77655826  0.36769531  0.35230034    -0.05100
C2634       C  0.75453197  0.38381716  0.35218697     0.09100
C2635       C  0.73378414  0.37737315  0.37266651    -0.02400
C2636       C  0.73484173  0.35488917  0.39264560    -0.00700
C2637       C  0.75686786  0.33876459  0.39300845    -0.04300
C2638       C  0.77773744  0.34524827  0.37261741     0.02700
C2639       C  0.75250879  0.40699561  0.32955109     0.09500
C2640       C  0.71126735  0.39402437  0.37327093     0.35400
C2641       C  0.80067191  0.32925500  0.37325956     0.38900
C2642       C  0.74608791  0.40317274  0.29642627    -0.04700
C2643       C  0.74219460  0.42487141  0.27556339     0.02500
C2644       C  0.74438420  0.45091689  0.28769313    -0.04300
C2645       C  0.75149779  0.45458493  0.32078248    -0.00500
C2646       C  0.75556382  0.43276956  0.34149051    -0.03100
C2647       C  0.74302305  0.37671861  0.28398485     0.36200
C2648       C  0.75369877  0.48072631  0.33428382     0.39800
C2649       C  0.73662751  0.42013809  0.24131505     0.38900
C2650       C  0.76245618  0.43682454  0.37544442     0.35900
C2651       C  0.79816729  0.37463865  0.33193277     0.36500
C2652       C  0.71263359  0.34776533  0.41177512     0.39800
N2653       N  0.73212482  0.41622841  0.21405253    -0.38300
N2654       N  0.74063822  0.35555918  0.27425823    -0.39900
N2655       N  0.75573078  0.50134469  0.34576262    -0.37600
N2656       N  0.76789041  0.44010374  0.40255085    -0.40000
N2657       N  0.69340394  0.40742497  0.37399586    -0.39800
N2658       N  0.69451644  0.34212444  0.42630484    -0.37400
N2659       N  0.81895796  0.31645766  0.37386392    -0.38500
N2660       N  0.81532082  0.38041745  0.31561884    -0.40100
C2661       C  0.77590399  0.11643297  0.37240102    -0.05100
C2662       C  0.75697485  0.11568982  0.34783854     0.09100
C2663       C  0.74106271  0.13778035  0.34317553    -0.02400
C2664       C  0.74282725  0.15964997  0.36436342    -0.00700
C2665       C  0.76122370  0.16005070  0.38972462    -0.04300
C2666       C  0.77828173  0.13860963  0.39285417     0.02700
C2667       C  0.75293711  0.09109580  0.32810572     0.09500
C2668       C  0.72270726  0.13787932  0.31662152     0.35400
C2669       C  0.79870524  0.13937093  0.41676271     0.38900
C2670       C  0.73175028  0.07483452  0.33459321    -0.04700
C2671       C  0.72744425  0.05204456  0.31568689     0.02500
C2672       C  0.74494005  0.04449081  0.29087418    -0.04300
C2673       C  0.76749193  0.05954221  0.28678115    -0.00500
C2674       C  0.77081860  0.08329918  0.30417955    -0.03100
C2675       C  0.71459382  0.08141354  0.36125723     0.36200
C2676       C  0.78799653  0.05058901  0.26584454     0.39800
C2677       C  0.70557618  0.03565786  0.32309058     0.38900
C2678       C  0.79259670  0.09998778  0.29723258     0.35900
C2679       C  0.79270590  0.09408629  0.37702082     0.36500
C2680       C  0.72470628  0.18103099  0.36112731     0.39800
N2681       N  0.68817221  0.02266858  0.32947519    -0.38300
N2682       N  0.70109187  0.08672202  0.38267715    -0.39900
N2683       N  0.80549028  0.04406411  0.25055171    -0.37600
N2684       N  0.80990299  0.11337486  0.29170367    -0.40000
N2685       N  0.70814946  0.13802212  0.29532191    -0.39800
N2686       N  0.71015436  0.19801275  0.35863517    -0.37400
N2687       N  0.81531046  0.13960794  0.43541984    -0.38500
N2688       N  0.80616565  0.07629670  0.38052758    -0.40100
O2689       O  0.76140909  0.70565977  0.40455560    -0.86100
O2690       O  0.75575126  0.70407908  0.59125634    -0.86200
O2691       O  0.80098678  0.67441210  0.49603040    -0.87900
O2692       O  0.71888638  0.67403575  0.49899036    -0.86700
O2693       O  0.68763751  0.70539037  0.49823411    -0.86300
O2694       O  0.83136458  0.70619931  0.50081125    -0.87600
O2695       O  0.75964280  0.67394909  0.55016350    -0.86100
O2696       O  0.76074058  0.67435000  0.44479875    -0.85700
Zr2697     Zr  0.75988631  0.69613165  0.49777406     2.84300
O2698       O  0.73380745  0.72151513  0.53168552    -1.07700
O2699       O  0.78591791  0.72264374  0.46546802    -1.08400
C2700       C  0.76128614  0.68156305  0.41457783     1.07000
C2701       C  0.75692050  0.68018987  0.58052208     1.07000
C2702       C  0.82438081  0.68210485  0.49797398     1.10000
C2703       C  0.69530617  0.68140440  0.49913640     1.07700
H2704       H  0.79532567  0.71041185  0.54643650     0.33300
O2705       O  0.78472628  0.72172088  0.53300661    -1.28600
H2706       H  0.72377922  0.71113070  0.45029612     0.33000
O2707       O  0.73442814  0.72219444  0.46402585    -1.30300
O2708       O  0.75789420  0.79164814  0.59277981    -0.86100
O2709       O  0.75996089  0.79286464  0.40578997    -0.87600
O2710       O  0.83145196  0.74675276  0.55385052    -0.86100
O2711       O  0.68674986  0.74740091  0.55119236    -0.86200
O2712       O  0.68759834  0.74899663  0.44544214    -0.85900
O2713       O  0.83286911  0.74828636  0.44881366    -0.85700
O2714       O  0.79953823  0.82264528  0.50215564    -0.86100
O2715       O  0.71714308  0.82100786  0.49630219    -0.85600
O2716       O  0.83075747  0.79123683  0.50227108    -0.86600
O2717       O  0.68643469  0.78927314  0.49836121    -0.85800
O2718       O  0.80061135  0.74669759  0.59385762    -0.86200
O2719       O  0.80416901  0.75003293  0.40653784    -0.85900
O2720       O  0.71797380  0.74985570  0.40489223    -0.85500
O2721       O  0.71646630  0.74693445  0.59255707    -0.86000
O2722       O  0.75800804  0.82267766  0.55217456    -0.86200
O2723       O  0.75805695  0.82320494  0.44731978    -0.87600
Zr2724     Zr  0.75860099  0.74789711  0.56652946     2.83100
Zr2725     Zr  0.76066771  0.74901018  0.43120692     2.83500
Zr2726     Zr  0.81037740  0.74854149  0.50070237     2.84100
Zr2727     Zr  0.70849934  0.74771631  0.49830388     2.83400
Zr2728     Zr  0.75881589  0.80044139  0.49959831     2.84200
O2729       O  0.73411546  0.77424052  0.46529583    -1.08200
O2730       O  0.78438767  0.77466634  0.53376239    -1.07700
C2731       C  0.75786357  0.81570485  0.58246662     1.07000
C2732       C  0.75856739  0.81668093  0.41682332     1.09600
C2733       C  0.82419827  0.74622294  0.58402778     1.07200
C2734       C  0.69322983  0.74705120  0.58169261     1.07500
C2735       C  0.69444469  0.74965691  0.41517395     1.07100
C2736       C  0.82736306  0.74960373  0.41812186     1.06700
C2737       C  0.82309728  0.81527076  0.50250325     1.07100
C2738       C  0.69368551  0.81332236  0.49688102     1.06600
H2739       H  0.79647204  0.78643214  0.45359266     0.33300
O2740       O  0.78551744  0.77505796  0.46642244    -1.29300
H2741       H  0.72186749  0.78524036  0.54596078     0.33300
O2742       O  0.73297364  0.77428413  0.53272987    -1.30600
N2743       N  0.97081849  0.49800103  0.48761861    -0.36200
N2744       N  0.50952913  0.95783950  0.49277968    -0.56800
N2745       N  0.54840192  0.49851393  0.49853337    -0.36200
N2746       N  0.50970712  0.53856485  0.48958021    -0.56800
C2747       C  0.95643836  0.97653154  0.48176876     0.27400
C2748       C  0.95629791  0.51911988  0.48055576     0.27400
C2749       C  0.56347183  0.97721772  0.49491977     0.27400
C2750       C  0.56338292  0.51971209  0.49391723     0.27400
C2751       C  0.98869464  0.94244879  0.49578863     0.36000
C2752       C  0.52990707  0.94262844  0.49968724     0.36000
C2753       C  0.98886912  0.55412613  0.48994334     0.36000
C2754       C  0.52987315  0.55433990  0.49541782     0.36000
C2755       C  0.93247937  0.98407758  0.47071266    -0.21500
C2756       C  0.93227145  0.51095155  0.47033758    -0.21500
C2757       C  0.58847572  0.98507367  0.48903357    -0.21500
C2758       C  0.58835884  0.51186589  0.48813499    -0.21500
C2759       C  0.99587637  0.91724469  0.50433706    -0.22500
C2760       C  0.52203520  0.91725612  0.50632588    -0.22500
C2761       C  0.99594815  0.58002730  0.49482712    -0.22500
C2762       C  0.52194262  0.58012395  0.49855951    -0.22500
C2763       C  0.96338209  0.95047795  0.48923807    -0.17900
C2764       C  0.96349670  0.54550568  0.48545542    -0.17900
C2765       C  0.55553877  0.54605443  0.49623104    -0.17900
C2766       C  0.55560295  0.95088286  0.49801940    -0.17900
H2767       H  0.91648831  0.97153610  0.46461174     0.15000
H2768       H  0.91602338  0.52298876  0.46383080     0.15000
H2769       H  0.60521951  0.97286805  0.48582053     0.15000
H2770       H  0.60486868  0.52417086  0.48389040     0.15000
H2771       H  0.98362175  0.90046106  0.50814993     0.13300
H2772       H  0.53383013  0.90043277  0.51194427     0.13300
H2773       H  0.98369732  0.59712003  0.49565676     0.13300
H2774       H  0.53366447  0.59725569  0.50280908     0.13300
H2775       H  0.98799751  0.49837693  0.50016037     0.26600
H2776       H  0.52976442  0.49862651  0.50710894     0.26600
O2777       O  0.99151557  0.95387142  0.90678743    -0.86100
O2778       O  0.98034202  0.95501537  0.09262608    -0.86200
O2779       O  0.52676817  0.92326115  0.00268549    -0.87900
O2780       O  0.94598194  0.92485418  0.99642234    -0.86700
O2781       O  0.91516850  0.95689626  0.99592004    -0.86300
O2782       O  0.55823988  0.95448443  0.00337609    -0.87600
O2783       O  0.98371030  0.92434884  0.05202620    -0.86100
O2784       O  0.99096166  0.92411240  0.94827152    -0.85700
Zr2785     Zr  0.98684121  0.94664895  0.00004799     2.84300
O2786       O  0.95965813  0.97295026  0.03126134    -1.07700
O2787       O  0.51464394  0.97183147  0.96851081    -1.08400
C2788       C  0.99168880  0.92998792  0.91773034     1.07000
C2789       C  0.98103607  0.93096562  0.08222873     1.07000
C2790       C  0.55029314  0.93048563  0.00325209     1.10000
C2791       C  0.92265296  0.93281429  0.99583963     1.07700
H2792       H  0.52097862  0.96068315  0.05019937     0.33300
O2793       O  0.51106907  0.97206523  0.03599912    -1.28600
H2794       H  0.95282545  0.96115631  0.95032952     0.33000
O2795       O  0.96297678  0.97246132  0.96433528    -1.30300
O2796       O  0.98196059  0.54247480  0.09342642    -0.86100
O2797       O  0.99144447  0.54134012  0.90615513    -0.87600
O2798       O  0.55746711  0.99609677  0.05859949    -0.86100
O2799       O  0.91184896  0.99977486  0.04661510    -0.86200
O2800       O  0.91716379  0.99802584  0.94148332    -0.85900
O2801       O  0.56228320  0.00017458  0.95363840    -0.85700
O2802       O  0.52934098  0.57213902  0.00511450    -0.86100
O2803       O  0.94651326  0.57378702  0.99522425    -0.85600
O2804       O  0.55970471  0.54011216  0.01059465    -0.86600
O2805       O  0.91583641  0.54213519  0.99085677    -0.85800
O2806       O  0.52517295  0.99798876  0.09677028    -0.86200
O2807       O  0.53498320  0.49728565  0.91024934    -0.85900
O2808       O  0.94915085  0.49596612  0.90333273    -0.85500
O2809       O  0.94002022  0.99767195  0.08941049    -0.86000
O2810       O  0.98485365  0.57319547  0.05286974    -0.86200
O2811       O  0.99109569  0.57264264  0.94677930    -0.87600
Zr2812     Zr  0.98377650  0.99880443  0.06728781     2.83100
Zr2813     Zr  0.99075046  0.99792605  0.93241476     2.83500
Zr2814     Zr  0.53834505  0.99795208  0.00441534     2.84100
Zr2815     Zr  0.93618742  0.99939764  0.99566107     2.83400
Zr2816     Zr  0.98764526  0.55119158  0.99982595     2.84200
O2817       O  0.96376726  0.52496866  0.96404836    -1.08200
O2818       O  0.51124211  0.52469832  0.03545980    -1.07700
C2819       C  0.98278402  0.56653699  0.08324337     1.07000
C2820       C  0.99179547  0.56537107  0.91653248     1.09600
C2821       C  0.54908630  0.99675845  0.08825445     1.07200
C2822       C  0.91704952  0.99849432  0.07745679     1.07500
C2823       C  0.92515898  0.49616495  0.91172129     1.07100
C2824       C  0.55783972  0.49886266  0.92268514     1.06700
C2825       C  0.55259179  0.56434906  0.00964282     1.07100
C2826       C  0.92304005  0.56630258  0.99187313     1.06600
H2827       H  0.52622584  0.53531341  0.95633108     0.33300
O2828       O  0.51469960  0.52435315  0.96861012    -1.29300
H2829       H  0.94857217  0.53671518  0.04374207     0.33300
O2830       O  0.96004419  0.52551774  0.03140031    -1.30600
N2831       N  0.77511256  0.74907816  0.00006991    -0.36200
N2832       N  0.73811560  0.78970728  0.01450505    -0.56800
N2833       N  0.69883456  0.75001980  0.02264718    -0.36200
N2834       N  0.73581941  0.70937308  0.00470677    -0.56800
C2835       C  0.78846587  0.77069453  0.99169086     0.27400
C2836       C  0.78758727  0.72826066  0.98725604     0.27400
C2837       C  0.68406909  0.77181515  0.02276741     0.27400
C2838       C  0.68299384  0.72925654  0.01965400     0.27400
C2839       C  0.75964977  0.80417427  0.01620274     0.36000
C2840       C  0.71882182  0.80520537  0.02487207     0.36000
C2841       C  0.75627008  0.69339747  0.00095054     0.36000
C2842       C  0.71575707  0.69385705  0.01217456     0.36000
C2843       C  0.80956447  0.76347946  0.97314250    -0.21500
C2844       C  0.80920450  0.73665250  0.97077067    -0.21500
C2845       C  0.65848694  0.76467239  0.02135119    -0.21500
C2846       C  0.65780796  0.73787549  0.01951629    -0.21500
C2847       C  0.75406094  0.82888695  0.02846044    -0.22500
C2848       C  0.72806634  0.82977704  0.03301492    -0.22500
C2849       C  0.74907989  0.66754450  0.00532522    -0.22500
C2850       C  0.72334722  0.66781298  0.01219543    -0.22500
C2851       C  0.78347552  0.79643820  0.00291005    -0.17900
C2852       C  0.78107722  0.70176804  0.99214053    -0.17900
C2853       C  0.69040695  0.70265243  0.01742917    -0.17900
C2854       C  0.69279145  0.79805099  0.02438910    -0.17900
H2855       H  0.82416694  0.77616527  0.96317870     0.15000
H2856       H  0.82336101  0.72467210  0.95851003     0.15000
H2857       H  0.64192325  0.77741073  0.02166855     0.15000
H2858       H  0.64063008  0.72613523  0.01792823     0.15000
H2859       H  0.76712218  0.84503910  0.03222757     0.13300
H2860       H  0.71729199  0.84665738  0.04118537     0.13300
H2861       H  0.76103023  0.65028868  0.00329184     0.13300
H2862       H  0.71157153  0.65077296  0.01666967     0.13300
H2863       H  0.76060764  0.74823606  0.01734423     0.26600
H2864       H  0.71838500  0.74914850  0.02644374     0.26600
C2865       C  0.53531380  0.75060371  0.26904781     0.86900
C2866       C  0.53011716  0.72583495  0.24806601    -0.53300
C2867       C  0.00706450  0.72539385  0.23219455     0.09800
C2868       C  0.99029166  0.74941636  0.24037871     0.20800
C2869       C  0.52979166  0.77385277  0.24626440    -0.54100
C2870       C  0.00656164  0.77351136  0.23051073     0.09900
C2871       C  0.01264022  0.75042868  0.29285577    -0.53600
C2872       C  0.98919712  0.75023662  0.27832713     0.10500
H2873       H  0.54219249  0.70869726  0.24733285     0.15000
H2874       H  0.97150326  0.74820375  0.22829783     0.00800
H2875       H  0.54325387  0.78988577  0.24392398     0.15300
H2876       H  0.01487855  0.75049260  0.31923988     0.15100
C2877       C  0.71195417  0.99940079  0.22725589     0.86900
C2878       C  0.71563829  0.97484835  0.24863748    -0.53300
C2879       C  0.73786085  0.97401355  0.26623447     0.09800
C2880       C  0.75520087  0.99818378  0.26024287     0.20800
C2881       C  0.71586823  0.52268043  0.25047988    -0.54100
C2882       C  0.73827328  0.52242400  0.26780135     0.09900
C2883       C  0.73634240  0.99875686  0.20583157    -0.53600
C2884       C  0.75890450  0.99868417  0.22281283     0.10500
H2885       H  0.70208801  0.95879936  0.24912435     0.15000
H2886       H  0.77346173  0.99771358  0.27405758     0.00800
H2887       H  0.70201685  0.53846928  0.25261945     0.15300
H2888       H  0.73621391  0.99727722  0.17942651     0.15100
C2889       C  0.53339647  0.74733682  0.72609352     0.86900
C2890       C  0.52992541  0.77125008  0.74868691    -0.53300
C2891       C  0.00812760  0.77113317  0.76708667     0.09800
C2892       C  0.99064742  0.74727035  0.76006820     0.20800
C2893       C  0.53006265  0.72349299  0.74829825    -0.54100
C2894       C  0.00782738  0.72282371  0.76582828     0.09900
C2895       C  0.00866208  0.74845132  0.70528735    -0.53600
C2896       C  0.98618823  0.74813684  0.72257549     0.10500
H2897       H  0.54284727  0.78782974  0.74924775     0.15000
H2898       H  0.97273102  0.74739464  0.77457654     0.00800
H2899       H  0.54434187  0.70806207  0.74977549     0.15300
H2900       H  0.00880890  0.75008544  0.67891103     0.15100
C2901       C  0.71846180  0.99847306  0.77607539     0.86900
C2902       C  0.71966421  0.52195621  0.75262012    -0.53300
C2903       C  0.74026616  0.52251225  0.73204628     0.09800
C2904       C  0.75796312  0.99842647  0.73624346     0.20800
C2905       C  0.71941706  0.97494262  0.75229344    -0.54100
C2906       C  0.74023098  0.97445191  0.73214934     0.09900
C2907       C  0.74454148  0.99830892  0.79330255    -0.53600
C2908       C  0.76534058  0.99858144  0.77285762     0.10500
H2909       H  0.70510976  0.53701499  0.75193818     0.15000
H2910       H  0.77443086  0.99817273  0.71921025     0.00800
H2911       H  0.70485128  0.95987894  0.75092717     0.15300
H2912       H  0.74635360  0.99834089  0.81973262     0.15100
C2913       C  0.60382901  0.97403173  0.14293798    -0.05100
C2914       C  0.61330925  0.99815721  0.15482596     0.09100
C2915       C  0.59999872  0.52152487  0.14716241    -0.02400
C2916       C  0.57838110  0.52090396  0.12638695    -0.00700
C2917       C  0.56911996  0.99683435  0.11416942    -0.04300
C2918       C  0.58160322  0.97334387  0.12317156     0.02700
C2919       C  0.63807555  0.99919611  0.17381342     0.09500
C2920       C  0.60904338  0.54638024  0.15988092     0.35400
C2921       C  0.57183865  0.94842828  0.11167194     0.38900
C2922       C  0.66012356  0.01004348  0.15948816    -0.04700
C2923       C  0.68303834  0.01257648  0.17759963     0.02500
C2924       C  0.68562270  0.00087252  0.20906560    -0.04300
C2925       C  0.66253380  0.99211451  0.22429127    -0.00500
C2926       C  0.63927937  0.99070641  0.20650580    -0.03100
C2927       C  0.65927373  0.01852480  0.12565424     0.36200
C2928       C  0.66181953  0.98588216  0.25883907     0.39800
C2929       C  0.70223805  0.03017533  0.16480656     0.38900
C2930       C  0.61644131  0.98031691  0.22187480     0.35900
C2931       C  0.61762314  0.95001633  0.14993705     0.36500
C2932       C  0.56647886  0.54520936  0.11607249     0.39800
N2933       N  0.71677021  0.04467843  0.15364544    -0.38300
N2934       N  0.65857189  0.02510226  0.09863254    -0.39900
N2935       N  0.66099559  0.98059509  0.28629906    -0.37600
N2936       N  0.59829797  0.97176473  0.23400481    -0.40000
N2937       N  0.61632671  0.56623272  0.16989241    -0.39800
N2938       N  0.55709840  0.56457257  0.10755769    -0.37400
N2939       N  0.56410746  0.92838801  0.10291566    -0.38500
N2940       N  0.62876171  0.93094430  0.15555715    -0.40100
C2941       C  0.81261735  0.52054261  0.16567842    -0.05100
C2942       C  0.82951218  0.99904169  0.16704775     0.09100
C2943       C  0.82448501  0.97840859  0.18897251    -0.02400
C2944       C  0.80220413  0.97881353  0.20861633    -0.00700
C2945       C  0.78425910  0.99945974  0.20558237    -0.04300
C2946       C  0.79013592  0.52077744  0.18478076     0.02700
C2947       C  0.85237159  0.99802443  0.14482933     0.09500
C2948       C  0.84225033  0.95662472  0.19102178     0.35400
C2949       C  0.77430658  0.54411746  0.18525800     0.38900
C2950       C  0.87525126  0.51088761  0.15338021    -0.04700
C2951       C  0.89638163  0.51085235  0.13175651     0.02500
C2952       C  0.89478341  0.99808068  0.10089731    -0.04300
C2953       C  0.87139088  0.98547517  0.09239799    -0.00500
C2954       C  0.85057936  0.98522200  0.11443001    -0.03100
C2955       C  0.87673146  0.52475644  0.18429114     0.36200
C2956       C  0.86804535  0.97300988  0.06081919     0.39800
C2957       C  0.91919849  0.52526115  0.14091473     0.38900
C2958       C  0.82690001  0.97215060  0.10559194     0.35900
C2959       C  0.81857075  0.54256822  0.14469172     0.36500
C2960       C  0.79821937  0.95801123  0.23201112     0.39800
N2961       N  0.93730880  0.53682326  0.14841858    -0.38300
N2962       N  0.87774026  0.53593035  0.20888398    -0.39900
N2963       N  0.86462845  0.96331671  0.03561467    -0.37600
N2964       N  0.80799401  0.96176364  0.09865086    -0.40000
N2965       N  0.85644182  0.93925237  0.19252297    -0.39800
N2966       N  0.79615936  0.94127627  0.25082161    -0.37400
N2967       N  0.76238515  0.56320906  0.18636792    -0.38500
N2968       N  0.82350491  0.56015454  0.12806846    -0.40100
C2969       C  0.96793403  0.82794434  0.18645609    -0.05100
C2970       C  0.98728233  0.84021315  0.16816937     0.09100
C2971       C  0.51170477  0.82869020  0.16671956    -0.02400
C2972       C  0.51747440  0.80628379  0.18551229    -0.00700
C2973       C  0.99877725  0.79491548  0.20654114    -0.04300
C2974       C  0.97334682  0.80513100  0.20491614     0.02700
C2975       C  0.98188138  0.86442716  0.14849833     0.09500
C2976       C  0.53085485  0.83969885  0.14503187     0.35400
C2977       C  0.95205163  0.79237991  0.22086856     0.38900
C2978       C  0.99081474  0.88905773  0.15918562    -0.04700
C2979       C  0.98987465  0.91104649  0.13821124     0.02500
C2980       C  0.97922978  0.90878723  0.10638675    -0.04300
C2981       C  0.46855018  0.88420800  0.09686401    -0.00500
C2982       C  0.47018237  0.86224903  0.11767533    -0.03100
C2983       C  0.00156047  0.89153001  0.19171473     0.36200
C2984       C  0.45615911  0.88081926  0.06541212     0.39800
C2985       C  0.00138873  0.93541444  0.14899924     0.38900
C2986       C  0.46052212  0.83698200  0.10696130     0.35900
C2987       C  0.94220636  0.83871064  0.18583148     0.36500
C2988       C  0.54260521  0.79456058  0.18166932     0.39800
N2989       N  0.01065762  0.95479583  0.15768293    -0.38300
N2990       N  0.01001253  0.89345601  0.21773803    -0.39900
N2991       N  0.44640365  0.87734103  0.04040315    -0.37600
N2992       N  0.45280695  0.81681405  0.09859867    -0.40000
N2993       N  0.54600922  0.84842398  0.12758498    -0.39800
N2994       N  0.56287386  0.78575549  0.17857826    -0.37400
N2995       N  0.93423227  0.78262455  0.23238570    -0.38500
N2996       N  0.92164326  0.84711976  0.18515156    -0.40100
C2997       C  0.51375237  0.67201447  0.16647424    -0.05100
C2998       C  0.99114785  0.65738050  0.17052919     0.09100
C2999       C  0.97253557  0.66627630  0.19291173    -0.02400
C3000       C  0.97664938  0.68935860  0.21157215    -0.00700
C3001       C  0.00004322  0.70332176  0.20900761    -0.04300
C3002       C  0.51786312  0.69512986  0.18485144     0.02700
C3003       C  0.98655426  0.63327139  0.14992633     0.09500
C3004       C  0.94929356  0.65119446  0.19720169     0.35400
C3005       C  0.53955605  0.71157726  0.17691231     0.38900
C3006       C  0.99624661  0.60869366  0.15962659    -0.04700
C3007       C  0.99379399  0.58647697  0.13898782     0.02500
C3008       C  0.98177696  0.58864437  0.10793671    -0.04300
C3009       C  0.97029593  0.61306056  0.09962164    -0.00500
C3010       C  0.97312639  0.63521633  0.12017290    -0.03100
C3011       C  0.00926139  0.60648831  0.19078456     0.36200
C3012       C  0.45490682  0.61554583  0.07027773     0.39800
C3013       C  0.00413283  0.56162994  0.14988254     0.38900
C3014       C  0.46265421  0.66035035  0.11039730     0.35900
C3015       C  0.53299438  0.66296446  0.14352990     0.36500
C3016       C  0.95615360  0.69882948  0.23219848     0.39800
N3017       N  0.01223552  0.54183043  0.15895487    -0.38300
N3018       N  0.01964088  0.60487091  0.21567062    -0.39900
N3019       N  0.44245219  0.61784597  0.04708249    -0.37600
N3020       N  0.45440379  0.68045643  0.10268897    -0.40000
N3021       N  0.93087176  0.63898343  0.20073048    -0.39800
N3022       N  0.93891106  0.70613063  0.24743237    -0.37400
N3023       N  0.55659671  0.72485073  0.16988121    -0.38500
N3024       N  0.54833856  0.65540979  0.12543748    -0.40100
C3025       C  0.61187097  0.89446008  0.98683169    -0.05100
C3026       C  0.61062753  0.87369173  0.00956577     0.09100
C3027       C  0.58793493  0.86987414  0.02773909    -0.02400
C3028       C  0.56825837  0.88870969  0.02649468    -0.00700
C3029       C  0.56982268  0.90956541  0.00392900    -0.04300
C3030       C  0.59041962  0.91049262  0.98188835     0.02700
C3031       C  0.63263398  0.85520574  0.01333056     0.09500
C3032       C  0.58460361  0.84633243  0.04708520     0.35400
C3033       C  0.58780253  0.92486252  0.95159799     0.38900
C3034       C  0.64518741  0.85267108  0.04381553    -0.04700
C3035       C  0.66465885  0.83381876  0.04784915     0.02500
C3036       C  0.67326173  0.81918119  0.02072047    -0.04300
C3037       C  0.66185549  0.82301744  0.98979679    -0.00500
C3038       C  0.64073878  0.83983461  0.98651883    -0.03100
C3039       C  0.63797619  0.86938774  0.07103705     0.36200
C3040       C  0.67159002  0.80917354  0.96137577     0.39800
C3041       C  0.67546183  0.82913597  0.07993368     0.38900
C3042       C  0.62691960  0.84071290  0.95575312     0.35900
C3043       C  0.63508895  0.89951342  0.96851888     0.36500
C3044       C  0.54663930  0.88654518  0.04850984     0.39800
N3045       N  0.68400210  0.82542880  0.10559669    -0.38300
N3046       N  0.63209069  0.88274024  0.09265966    -0.39900
N3047       N  0.67941829  0.79825289  0.93867685    -0.37600
N3048       N  0.61592698  0.84157124  0.93123107    -0.40000
N3049       N  0.58186022  0.82741779  0.06220776    -0.39800
N3050       N  0.52951478  0.88472764  0.06625273    -0.37400
N3051       N  0.58505150  0.93505466  0.92662699    -0.38500
N3052       N  0.65359145  0.90360188  0.95389096    -0.40100
C3053       C  0.87720276  0.88053005  0.96561978    -0.05100
C3054       C  0.86314762  0.87536041  0.99439069     0.09100
C3055       C  0.86918360  0.88878214  0.02362541    -0.02400
C3056       C  0.88984618  0.90629543  0.02443623    -0.00700
C3057       C  0.90276706  0.91258489  0.99535247    -0.04300
C3058       C  0.89663135  0.89960827  0.96595719     0.02700
C3059       C  0.84311567  0.85458138  0.99479752     0.09500
C3060       C  0.85412324  0.88454548  0.05290928     0.35400
C3061       C  0.91035729  0.90590843  0.93617361     0.38900
C3062       C  0.84733288  0.83150844  0.01297975    -0.04700
C3063       C  0.82765524  0.81298844  0.01640656     0.02500
C3064       C  0.80422977  0.81642721  0.99961959    -0.04300
C3065       C  0.80070775  0.83871200  0.97959178    -0.00500
C3066       C  0.81964388  0.85827711  0.97838057    -0.03100
C3067       C  0.87188919  0.82706667  0.02864572     0.36200
C3068       C  0.77749194  0.84161420  0.96045812     0.39800
C3069       C  0.83154720  0.79044741  0.03740214     0.38900
C3070       C  0.81458235  0.88260085  0.96128017     0.35900
C3071       C  0.87197556  0.86600158  0.93587604     0.36500
C3072       C  0.89871278  0.91678003  0.05543441     0.39800
N3073       N  0.83477016  0.77237338  0.05392089    -0.38300
N3074       N  0.89144927  0.82372304  0.04122303    -0.39900
N3075       N  0.75882081  0.84387768  0.94552125    -0.37600
N3076       N  0.81037443  0.90205076  0.94782799    -0.40000
N3077       N  0.84206778  0.88117593  0.07622325    -0.39800
N3078       N  0.90607392  0.92482684  0.08016145    -0.37400
N3079       N  0.92129131  0.91107630  0.91247150    -0.38500
N3080       N  0.86788913  0.85447350  0.91206900    -0.40100
C3081       C  0.82720720  0.65054681  0.95769817    -0.05100
C3082       C  0.84299180  0.64594995  0.98509416     0.09100
C3083       C  0.83877611  0.66003004  0.01429843    -0.02400
C3084       C  0.81831013  0.67787419  0.01655282    -0.00700
C3085       C  0.80209530  0.68203671  0.98946903    -0.04300
C3086       C  0.80683704  0.66868203  0.95983772     0.02700
C3087       C  0.86314357  0.62512149  0.98432604     0.09500
C3088       C  0.85565754  0.65613367  0.04201749     0.35400
C3089       C  0.79103023  0.67400949  0.93152315     0.38900
C3090       C  0.88763638  0.63032859  0.97160130    -0.04700
C3091       C  0.90717607  0.61119953  0.97355115     0.02500
C3092       C  0.90252556  0.58682959  0.98927275    -0.04300
C3093       C  0.87773502  0.58200083  0.00225836    -0.00500
C3094       C  0.85810421  0.60073253  0.99888015    -0.03100
C3095       C  0.89268442  0.65556386  0.95670663     0.36200
C3096       C  0.87231829  0.55836199  0.02063907     0.39800
C3097       C  0.93181915  0.61680328  0.95887618     0.38900
C3098       C  0.83251117  0.59503052  0.01066909     0.35900
C3099       C  0.83199901  0.63660407  0.92742288     0.36500
C3100       C  0.81392776  0.69207960  0.04678267     0.39800
N3101       N  0.95138576  0.62165224  0.94715176    -0.38300
N3102       N  0.89658177  0.67572135  0.94483980    -0.39900
N3103       N  0.86766005  0.53968238  0.03544046    -0.37600
N3104       N  0.81206249  0.59049766  0.01985711    -0.40000
N3105       N  0.86923621  0.65299581  0.06399891    -0.39800
N3106       N  0.81042835  0.70345100  0.07085919    -0.37400
N3107       N  0.77848097  0.67842085  0.90889663    -0.38500
N3108       N  0.83596586  0.62552580  0.90324990    -0.40100
C3109       C  0.58540211  0.62883411  0.03259112    -0.05100
C3110       C  0.61032716  0.62448775  0.02080198     0.09100
C3111       C  0.61672144  0.60023186  0.00665230    -0.02400
C3112       C  0.59774480  0.58111745  0.00176110    -0.00700
C3113       C  0.57267384  0.58491154  0.01416564    -0.04300
C3114       C  0.56695567  0.60875740  0.03061330     0.02700
C3115       C  0.62963608  0.64592981  0.02081418     0.09500
C3116       C  0.64289612  0.59533186  0.99633950     0.35400
C3117       C  0.54231833  0.61288540  0.04599800     0.38900
C3118       C  0.64304578  0.65239335  0.04962907    -0.04700
C3119       C  0.66264188  0.67129147  0.04868308     0.02500
C3120       C  0.66967516  0.68272174  0.01865623    -0.04300
C3121       C  0.65628174  0.67620235  0.98985478    -0.00500
C3122       C  0.63587567  0.65834439  0.99109015    -0.03100
C3123       C  0.63714926  0.63903793  0.07992711     0.36200
C3124       C  0.66358349  0.68789597  0.95897258     0.39800
C3125       C  0.67558539  0.67905671  0.07849104     0.38900
C3126       C  0.62138735  0.65245332  0.96172602     0.35900
C3127       C  0.57852185  0.65429223  0.04577556     0.36500
C3128       C  0.60384133  0.55883094  0.98135919     0.39800
N3129       N  0.68583252  0.68542586  0.10227265    -0.38300
N3130       N  0.63249563  0.62823409  0.10402288    -0.39900
N3131       N  0.66949793  0.69716774  0.93434158    -0.37600
N3132       N  0.60974762  0.64768219  0.93841194    -0.40000
N3133       N  0.66384232  0.59167253  0.98838963    -0.39800
N3134       N  0.60924464  0.54165859  0.96428492    -0.37400
N3135       N  0.52282161  0.61663223  0.05850361    -0.38500
N3136       N  0.57290800  0.67466235  0.05597411    -0.40100
C3137       C  0.82222997  0.51951231  0.82560720    -0.05100
C3138       C  0.84022716  0.99967684  0.81870487     0.09100
C3139       C  0.83519404  0.98173158  0.79329147    -0.02400
C3140       C  0.81163414  0.98257858  0.77625437    -0.00700
C3141       C  0.79222576  0.00042513  0.78592288    -0.04300
C3142       C  0.79838583  0.51988901  0.80942267     0.02700
C3143       C  0.86316044  0.99631239  0.84047023     0.09500
C3144       C  0.85403480  0.96183431  0.78537890     0.35400
C3145       C  0.78067083  0.54111198  0.81611092     0.38900
C3146       C  0.86022762  0.98342913  0.87056988    -0.04700
C3147       C  0.88069105  0.98227228  0.89302646     0.02500
C3148       C  0.90470005  0.99414374  0.88571005    -0.04300
C3149       C  0.90812123  0.50500090  0.85404276    -0.00500
C3150       C  0.88733300  0.50636541  0.83181535    -0.03100
C3151       C  0.83583148  0.97135530  0.87843243     0.36200
C3152       C  0.93280371  0.51512318  0.84409506     0.39800
C3153       C  0.87664211  0.96825197  0.92337363     0.38900
C3154       C  0.89065963  0.51844723  0.80009229     0.35900
C3155       C  0.82814218  0.53936395  0.84987453     0.36500
C3156       C  0.80806979  0.96532577  0.74854580     0.39800
N3157       N  0.87262838  0.95705862  0.94736685    -0.38300
N3158       N  0.81637735  0.96172209  0.88448048    -0.39900
N3159       N  0.95254867  0.52295889  0.83591049    -0.37600
N3160       N  0.89332533  0.52800819  0.77471931    -0.40000
N3161       N  0.86903306  0.94591403  0.77909478    -0.39800
N3162       N  0.80649162  0.95179164  0.72592795    -0.37400
N3163       N  0.76683804  0.55827688  0.82154597    -0.38500
N3164       N  0.83280209  0.55529914  0.86911908    -0.40100
C3165       C  0.66104179  0.97599253  0.83001280    -0.05100
C3166       C  0.64921824  0.99999443  0.83809284     0.09100
C3167       C  0.66184535  0.52350236  0.83029845    -0.02400
C3168       C  0.68525931  0.52307652  0.81290777    -0.00700
C3169       C  0.69547986  0.99904161  0.80050058    -0.04300
C3170       C  0.68456600  0.97552678  0.81290856     0.02700
C3171       C  0.62564851  0.00036800  0.85934854     0.09500
C3172       C  0.65104613  0.54824323  0.84116358     0.35400
C3173       C  0.69870124  0.95110653  0.81197198     0.38900
C3174       C  0.62795000  0.49468487  0.89280699    -0.04700
C3175       C  0.60609600  0.49336575  0.91298254     0.02500
C3176       C  0.58115803  0.99925051  0.90038399    -0.04300
C3177       C  0.57928096  0.00619664  0.86672410    -0.00500
C3178       C  0.60133065  0.00639157  0.84643726    -0.03100
C3179       C  0.65323524  0.49059393  0.90669738     0.36200
C3180       C  0.55496866  0.01396092  0.85265107     0.39800
C3181       C  0.61003105  0.48541359  0.94668689     0.38900
C3182       C  0.59914509  0.01320206  0.81216430     0.35900
C3183       C  0.64925114  0.95161189  0.84021041     0.36500
C3184       C  0.69964436  0.54729182  0.81095657     0.39800
N3185       N  0.61350996  0.47919661  0.97350842    -0.38300
N3186       N  0.67340431  0.48750044  0.91770044    -0.39900
N3187       N  0.53567397  0.02022361  0.84116872    -0.37600
N3188       N  0.59752524  0.01877247  0.78485193    -0.40000
N3189       N  0.64239298  0.56796699  0.84974471    -0.39800
N3190       N  0.71071839  0.56686645  0.80948528    -0.37400
N3191       N  0.70971672  0.93143820  0.81203746    -0.38500
N3192       N  0.63987722  0.93219747  0.84845173    -0.40100
C3193       C  0.51658295  0.62318810  0.86709024    -0.05100
C3194       C  0.99424238  0.63141867  0.85053324     0.09100
C3195       C  0.97139200  0.61700270  0.85451230    -0.02400
C3196       C  0.97077669  0.59487449  0.87528788    -0.00700
C3197       C  0.99306734  0.58681508  0.89200539    -0.04300
C3198       C  0.51600601  0.60099111  0.88770208     0.02700
C3199       C  0.99511426  0.65492676  0.82831740     0.09500
C3200       C  0.94842501  0.62521643  0.83754385     0.35400
C3201       C  0.53902059  0.59276028  0.90468915     0.38900
C3202       C  0.50069135  0.65167347  0.79490969    -0.04700
C3203       C  0.50344287  0.67371042  0.77435953     0.02500
C3204       C  0.00140317  0.69956666  0.78711814    -0.04300
C3205       C  0.99446858  0.70266762  0.82037789    -0.00500
C3206       C  0.99111446  0.68044649  0.84069951    -0.03100
C3207       C  0.50368586  0.62545124  0.78168034     0.36200
C3208       C  0.99138347  0.72856726  0.83431185     0.39800
C3209       C  0.50745262  0.66943823  0.73972715     0.38900
C3210       C  0.98351595  0.68376797  0.87451597     0.35900
C3211       C  0.54016280  0.63775482  0.86310009     0.36500
C3212       C  0.94692547  0.58108215  0.88074828     0.39800
N3213       N  0.51050977  0.66544719  0.71218389    -0.38300
N3214       N  0.50603279  0.60452823  0.77115678    -0.39900
N3215       N  0.98857604  0.74896798  0.84615333    -0.37600
N3216       N  0.97723648  0.68639390  0.90143152    -0.40000
N3217       N  0.93009998  0.63179407  0.82396815    -0.39800
N3218       N  0.92791875  0.57014759  0.88552782    -0.37400
N3219       N  0.55735099  0.58615129  0.91824855    -0.38500
N3220       N  0.55897821  0.64940046  0.85998762    -0.40100
C3221       C  0.50553873  0.88767457  0.84124798    -0.05100
C3222       C  0.99661303  0.86288888  0.85122619     0.09100
C3223       C  0.98566397  0.86011753  0.88237076    -0.02400
C3224       C  0.98350186  0.88185475  0.90357699    -0.00700
C3225       C  0.99276250  0.90709474  0.89409821    -0.04300
C3226       C  0.50395594  0.90957885  0.86256445     0.02700
C3227       C  0.99923671  0.83919668  0.82954036     0.09500
C3228       C  0.97689459  0.83445496  0.89279083     0.35400
C3229       C  0.51521693  0.93417944  0.85234894     0.38900
C3230       C  0.51961212  0.82149008  0.83440113    -0.04700
C3231       C  0.52099824  0.79810652  0.81601116     0.02500
C3232       C  0.00297196  0.79287089  0.79101102    -0.04300
C3233       C  0.98192675  0.81003603  0.78720272    -0.00500
C3234       C  0.97998343  0.83296305  0.80662376    -0.03100
C3235       C  0.53903812  0.82721594  0.85870546     0.36200
C3236       C  0.96202873  0.80422544  0.76371817     0.39800
C3237       C  0.53969224  0.77834112  0.82479975     0.38900
C3238       C  0.95794897  0.85005674  0.80350328     0.35900
C3239       C  0.51686439  0.89046058  0.80911375     0.36500
C3240       C  0.97173539  0.87748380  0.93523528     0.39800
N3241       N  0.55400033  0.76227989  0.83281865    -0.38300
N3242       N  0.55457756  0.83178552  0.87803043    -0.39900
N3243       N  0.94555645  0.80003096  0.74558417    -0.37600
N3244       N  0.94034222  0.86370312  0.80131979    -0.40000
N3245       N  0.97010505  0.81393963  0.90102462    -0.39800
N3246       N  0.96255165  0.87346482  0.96045275    -0.37400
N3247       N  0.52437247  0.95372234  0.84416769    -0.38500
N3248       N  0.52586684  0.89269528  0.78344971    -0.40100
C3249       C  0.91702019  0.73104822  0.69727806    -0.05100
C3250       C  0.91244397  0.74887032  0.67162549     0.09100
C3251       C  0.93144265  0.76744218  0.66386438    -0.02400
C3252       C  0.95508706  0.76768919  0.68083995    -0.00700
C3253       C  0.96023314  0.74914783  0.70596616    -0.04300
C3254       C  0.94066627  0.73109431  0.71425652     0.02700
C3255       C  0.88839617  0.74697657  0.65123683     0.09500
C3256       C  0.92668092  0.78613059  0.63787929     0.35400
C3257       C  0.94480368  0.71158275  0.73931699     0.38900
C3258       C  0.86848283  0.76560877  0.65446760    -0.04700
C3259       C  0.84706674  0.76493454  0.63324028     0.02500
C3260       C  0.84500843  0.74521579  0.60907602    -0.04300
C3261       C  0.86422226  0.72570928  0.60715628    -0.00500
C3262       C  0.88600528  0.72692233  0.62758312    -0.03100
C3263       C  0.87026694  0.78583022  0.67925015     0.36200
C3264       C  0.86136996  0.70391666  0.58466413     0.39800
C3265       C  0.82777464  0.78532678  0.63519213     0.38900
C3266       C  0.90645653  0.70795070  0.62353156     0.35900
C3267       C  0.89738712  0.71222953  0.70589183     0.36500
C3268       C  0.97376199  0.78763126  0.67272144     0.39800
N3269       N  0.81237099  0.80159475  0.63654528    -0.38300
N3270       N  0.87157802  0.80204736  0.69897117    -0.39900
N3271       N  0.85919777  0.68622505  0.56717779    -0.37600
N3272       N  0.92284992  0.69291899  0.62024900    -0.40000
N3273       N  0.92260494  0.80099987  0.61721463    -0.39800
N3274       N  0.98861980  0.80350602  0.66595932    -0.37400
N3275       N  0.94711905  0.69572145  0.75923539    -0.38500
N3276       N  0.88182657  0.69712625  0.71280237    -0.40100
C3277       C  0.63154352  0.76616289  0.62518848    -0.05100
C3278       C  0.62882614  0.74569259  0.64796828     0.09100
C3279       C  0.64807286  0.72635787  0.65038089    -0.02400
C3280       C  0.66958612  0.72709452  0.62944795    -0.00700
C3281       C  0.67196082  0.74723116  0.60593529    -0.04300
C3282       C  0.65304076  0.76702423  0.60441180     0.02700
C3283       C  0.60534745  0.74441888  0.66900683     0.09500
C3284       C  0.64544384  0.70546094  0.67407985     0.35400
C3285       C  0.65607951  0.78886043  0.58216317     0.38900
C3286       C  0.58341526  0.73126145  0.65790181    -0.04700
C3287       C  0.56087088  0.73091315  0.67699630     0.02500
C3288       C  0.55912960  0.74568046  0.70665167    -0.04300
C3289       C  0.58266344  0.75588130  0.71935892    -0.00500
C3290       C  0.60520758  0.75590911  0.70018411    -0.03100
C3291       C  0.58425317  0.71770435  0.62670768     0.36200
C3292       C  0.58517283  0.76445829  0.75292015     0.39800
C3293       C  0.54038477  0.71374360  0.66651084     0.38900
C3294       C  0.62868086  0.76733754  0.71278682     0.35900
C3295       C  0.61201850  0.78629450  0.62300278     0.36500
C3296       C  0.68864406  0.70649617  0.63129958     0.39800
N3297       N  0.52423471  0.70006199  0.65743478    -0.38300
N3298       N  0.58499590  0.70692692  0.60182916    -0.39900
N3299       N  0.58851984  0.77162654  0.77939446    -0.37600
N3300       N  0.64744272  0.77629430  0.72281007    -0.40000
N3301       N  0.64332121  0.68880864  0.69301785    -0.39800
N3302       N  0.70368956  0.68991509  0.63301174    -0.37400
N3303       N  0.65857127  0.80649405  0.56476864    -0.38500
N3304       N  0.59641666  0.80232789  0.62122919    -0.40100
C3305       C  0.76031385  0.63925626  0.65956409    -0.05100
C3306       C  0.75268617  0.61435904  0.64811021     0.09100
C3307       C  0.74642161  0.61112857  0.61488666    -0.02400
C3308       C  0.74626192  0.63275409  0.59362437    -0.00700
C3309       C  0.75493116  0.65780308  0.60440324    -0.04300
C3310       C  0.76206494  0.66071327  0.63778858     0.02700
C3311       C  0.74993588  0.59146400  0.67087005     0.09500
C3312       C  0.73999141  0.58523951  0.60247801     0.35400
C3313       C  0.77157520  0.68552960  0.65010123     0.38900
C3314       C  0.72558372  0.58036337  0.67591288    -0.04700
C3315       C  0.72314951  0.55626763  0.69225089     0.02500
C3316       C  0.74438913  0.54505939  0.70883408    -0.04300
C3317       C  0.76872495  0.55707353  0.70506654    -0.00500
C3318       C  0.77158227  0.57931938  0.68480747    -0.03100
C3319       C  0.70291019  0.59379779  0.66404338     0.36200
C3320       C  0.79102414  0.54743251  0.72224922     0.39800
C3321       C  0.69901215  0.54236038  0.68992732     0.38900
C3322       C  0.79689095  0.58961366  0.67799745     0.35900
C3323       C  0.76637532  0.64277660  0.69388624     0.36500
C3324       C  0.73601094  0.62877955  0.56102826     0.39800
N3325       N  0.67983016  0.53120958  0.68766971    -0.38300
N3326       N  0.68492692  0.60470364  0.65470145    -0.39900
N3327       N  0.80948204  0.54054829  0.73527403    -0.37600
N3328       N  0.81704455  0.59784243  0.67247361    -0.40000
N3329       N  0.73481294  0.56461452  0.59274928    -0.39800
N3330       N  0.72775751  0.62492830  0.53523952    -0.37400
N3331       N  0.77914890  0.70527622  0.66010885    -0.38500
N3332       N  0.77136672  0.64548116  0.72123194    -0.40100
C3333       C  0.77429674  0.87999969  0.62571930    -0.05100
C3334       C  0.75408667  0.88240587  0.64842424     0.09100
C3335       C  0.73602666  0.86185083  0.65091507    -0.02400
C3336       C  0.73764480  0.83965924  0.63017016    -0.00700
C3337       C  0.75751488  0.83756337  0.60690095    -0.04300
C3338       C  0.77599608  0.85777905  0.60515838     0.02700
C3339       C  0.75177620  0.90655419  0.66963809     0.09500
C3340       C  0.71547754  0.86366649  0.67460313     0.35400
C3341       C  0.79721197  0.85565304  0.58255335     0.38900
C3342       C  0.74476346  0.93099235  0.65594520    -0.04700
C3343       C  0.74199077  0.95343493  0.67606584     0.02500
C3344       C  0.74550739  0.95155277  0.71017608    -0.04300
C3345       C  0.75299651  0.92725895  0.72376211    -0.00500
C3346       C  0.75655833  0.90505976  0.70355894    -0.03100
C3347       C  0.74009581  0.93299532  0.62110762     0.36200
C3348       C  0.75832254  0.92537948  0.75846165     0.39800
C3349       C  0.73505804  0.97833609  0.66161350     0.38900
C3350       C  0.76557505  0.88069040  0.71763939     0.35900
C3351       C  0.79345561  0.90046322  0.62344356     0.36500
C3352       C  0.71808809  0.81960866  0.63181889     0.39800
N3353       N  0.72965009  0.99808696  0.64963416    -0.38300
N3354       N  0.73653902  0.93462324  0.59327894    -0.39900
N3355       N  0.76313259  0.92391134  0.78599174    -0.37600
N3356       N  0.77278053  0.86125078  0.72886919    -0.40000
N3357       N  0.69921203  0.86491240  0.69371361    -0.39800
N3358       N  0.70236957  0.80372849  0.63329224    -0.37400
N3359       N  0.81438946  0.85434453  0.56484882    -0.38500
N3360       N  0.80868560  0.91680324  0.62133723    -0.40100
C3361       C  0.85990330  0.61696852  0.50621564    -0.05100
C3362       C  0.88397578  0.62365694  0.49341049     0.09100
C3363       C  0.88884638  0.64927664  0.48270320    -0.02400
C3364       C  0.86932612  0.66816069  0.48349248    -0.00700
C3365       C  0.84490578  0.66182376  0.49658438    -0.04300
C3366       C  0.84042246  0.63594604  0.50811261     0.02700
C3367       C  0.90442559  0.60361267  0.49123275     0.09500
C3368       C  0.91422551  0.65627608  0.47122919     0.35400
C3369       C  0.81601032  0.62846237  0.52217631     0.38900
C3370       C  0.91085436  0.59259600  0.46067767    -0.04700
C3371       C  0.93106793  0.57455296  0.45849549     0.02500
C3372       C  0.94296403  0.56550748  0.48724168    -0.04300
C3373       C  0.93606817  0.57609482  0.51791528    -0.00500
C3374       C  0.91765095  0.59604235  0.51966447    -0.03100
C3375       C  0.89649874  0.59965154  0.43166257     0.36200
C3376       C  0.94825956  0.56676622  0.54755733     0.39800
C3377       C  0.93997112  0.56560077  0.42681738     0.38900
C3378       C  0.91276171  0.60932926  0.55042420     0.35900
C3379       C  0.85536702  0.59047516  0.51771846     0.36500
C3380       C  0.87462144  0.69375048  0.46968384     0.43600
N3381       N  0.94732777  0.55856960  0.40161755    -0.38300
N3382       N  0.88487619  0.60511681  0.40859307    -0.39900
N3383       N  0.95798708  0.55933899  0.57119111    -0.37600
N3384       N  0.90903846  0.62021776  0.57479353    -0.40000
N3385       N  0.93446278  0.66191690  0.46224519    -0.39800
N3386       N  0.87927593  0.71403961  0.45866428    -0.37400
N3387       N  0.79659613  0.62212102  0.53317910    -0.38500
N3388       N  0.85196507  0.56937953  0.52703749    -0.40100
C3389       C  0.63358728  0.64579270  0.51983845    -0.05100
C3390       C  0.63695595  0.62211312  0.50278678     0.09100
C3391       C  0.65963435  0.61738344  0.48516317    -0.02400
C3392       C  0.67845821  0.63696100  0.48312187    -0.00700
C3393       C  0.67541987  0.66073186  0.50070900    -0.04300
C3394       C  0.65309036  0.66466452  0.51979689     0.02700
C3395       C  0.61580438  0.60281790  0.50154565     0.09500
C3396       C  0.66330670  0.59243347  0.46870131     0.35400
C3397       C  0.65005431  0.68772773  0.54016763     0.38900
C3398       C  0.60107086  0.60058839  0.47281993    -0.04700
C3399       C  0.58148497  0.58189776  0.47096974     0.02500
C3400       C  0.57583312  0.56627985  0.49840030    -0.04300
C3401       C  0.59009970  0.56903380  0.52749612    -0.00500
C3402       C  0.61037228  0.58703849  0.52890032    -0.03100
C3403       C  0.60607204  0.61768569  0.44527266     0.36200
C3404       C  0.58400712  0.55313943  0.55579000     0.39800
C3405       C  0.56744950  0.57836300  0.44070346     0.38900
C3406       C  0.62578061  0.58920932  0.55827611     0.35900
C3407       C  0.60970083  0.65099539  0.53679662     0.36500
C3408       C  0.70023704  0.63287697  0.46169225     0.39800
N3409       N  0.55625647  0.57549317  0.41657074    -0.38300
N3410       N  0.61017835  0.63143312  0.42346246    -0.39900
N3411       N  0.57912103  0.54038249  0.57826810    -0.37600
N3412       N  0.63805835  0.59095591  0.58171076    -0.40000
N3413       N  0.66613989  0.57248867  0.45569571    -0.39800
N3414       N  0.71747475  0.62943991  0.44446557    -0.37400
N3415       N  0.64700571  0.70584812  0.55671864    -0.38500
N3416       N  0.59062665  0.65522113  0.55015588    -0.40100
C3417       C  0.63035727  0.84782170  0.48101113    -0.05100
C3418       C  0.63481556  0.87221987  0.49599302     0.09100
C3419       C  0.65861575  0.87771752  0.51049324    -0.02400
C3420       C  0.67766273  0.85835073  0.51149678    -0.00700
C3421       C  0.67350738  0.83376736  0.49611831    -0.04300
C3422       C  0.64990105  0.82895219  0.48002227     0.02700
C3423       C  0.61434027  0.89228862  0.49650254     0.09500
C3424       C  0.66346954  0.90343005  0.52442439     0.35400
C3425       C  0.64582822  0.80532682  0.46091898     0.38900
C3426       C  0.60187138  0.89835280  0.52613160    -0.04700
C3427       C  0.58315475  0.91806670  0.52685450     0.02500
C3428       C  0.57573871  0.93043113  0.49757094    -0.04300
C3429       C  0.58780363  0.92388765  0.46779144    -0.00500
C3430       C  0.60767258  0.90541908  0.46745947    -0.03100
C3431       C  0.60835917  0.88426981  0.55577530     0.36200
C3432       C  0.58025091  0.93678919  0.43771969     0.39800
C3433       C  0.57164442  0.92579742  0.55765217     0.38900
C3434       C  0.62162163  0.90028096  0.43745474     0.35900
C3435       C  0.60555542  0.84218345  0.46660097     0.36500
C3436       C  0.70114125  0.86385899  0.52919897     0.39800
N3437       N  0.56250134  0.93201414  0.58222034    -0.38300
N3438       N  0.61364816  0.87297553  0.57931535    -0.39900
N3439       N  0.57433528  0.94731734  0.41387331    -0.37600
N3440       N  0.63281588  0.89622742  0.41358282    -0.40000
N3441       N  0.66733941  0.92391181  0.53552386    -0.39800
N3442       N  0.71978587  0.86853059  0.54329431    -0.37400
N3443       N  0.64213845  0.78679779  0.44529530    -0.38500
N3444       N  0.58578438  0.83776196  0.45513334    -0.40100
C3445       C  0.88574525  0.85112497  0.51781780    -0.05100
C3446       C  0.88220500  0.87383280  0.49889396     0.09100
C3447       C  0.85893708  0.87811121  0.48248984    -0.02400
C3448       C  0.83944855  0.85920014  0.48387322    -0.00700
C3449       C  0.84297871  0.83603609  0.50247861    -0.04300
C3450       C  0.86596175  0.83259304  0.52037937     0.02700
C3451       C  0.90304277  0.89346979  0.49629077     0.09500
C3452       C  0.85524783  0.90194685  0.46378430     0.35400
C3453       C  0.86910377  0.81051107  0.54232906     0.38900
C3454       C  0.91995006  0.89269700  0.46947966    -0.04700
C3455       C  0.93983636  0.91115529  0.46717377     0.02500
C3456       C  0.94253611  0.93066416  0.49145521    -0.04300
C3457       C  0.92508676  0.93180326  0.51779234    -0.00500
C3458       C  0.90543809  0.91315276  0.52025490    -0.03100
C3459       C  0.91643523  0.87321513  0.44400484     0.36200
C3460       C  0.92713687  0.95246035  0.54206572     0.39800
C3461       C  0.95739362  0.91022354  0.43977278     0.38900
C3462       C  0.88732925  0.91444542  0.54706875     0.35900
C3463       C  0.90997613  0.84666367  0.53420227     0.36500
C3464       C  0.81613780  0.86364245  0.46539575     0.39800
N3465       N  0.97151542  0.90937351  0.41803093    -0.38300
N3466       N  0.91333625  0.85778235  0.42363531    -0.39900
N3467       N  0.92865400  0.96918703  0.56109252    -0.37600
N3468       N  0.87281105  0.91548952  0.56836874    -0.40000
N3469       N  0.85230973  0.92094901  0.44888354    -0.39800
N3470       N  0.79759153  0.86755573  0.45074771    -0.37400
N3471       N  0.87167135  0.79302404  0.55997498    -0.38500
N3472       N  0.92936312  0.84298860  0.54706236    -0.40100
C3473       C  0.62963335  0.73621766  0.37536437    -0.05100
C3474       C  0.62931970  0.75444998  0.34956561     0.09100
C3475       C  0.65097015  0.77039160  0.34421645    -0.02400
C3476       C  0.67250393  0.76865901  0.36512728    -0.00700
C3477       C  0.67298813  0.75018880  0.39088043    -0.04300
C3478       C  0.65152520  0.73356127  0.39528856     0.02700
C3479       C  0.60673587  0.75541735  0.32678812     0.09500
C3480       C  0.65104878  0.78852888  0.31702251     0.35400
C3481       C  0.65208819  0.71302936  0.41973789     0.38900
C3482       C  0.58740867  0.77438636  0.33056695    -0.04700
C3483       C  0.56518840  0.77359111  0.31072669     0.02500
C3484       C  0.56175347  0.75344496  0.28675906    -0.04300
C3485       C  0.58351006  0.73733255  0.27990347    -0.00500
C3486       C  0.60498086  0.73735358  0.30094927    -0.03100
C3487       C  0.59052935  0.79482798  0.35492606     0.36200
C3488       C  0.58627177  0.72323247  0.24943594     0.39800
C3489       C  0.54637267  0.79431845  0.31447201     0.38900
C3490       C  0.62583995  0.71899401  0.29561247     0.35900
C3491       C  0.60721166  0.72024993  0.38156548     0.36500
C3492       C  0.69371038  0.78653431  0.36066514     0.39800
N3493       N  0.53156523  0.81103811  0.31735515    -0.38300
N3494       N  0.59321969  0.81123631  0.37417302    -0.39900
N3495       N  0.58971657  0.71172155  0.22545397    -0.37600
N3496       N  0.64247805  0.70437662  0.29153136    -0.40000
N3497       N  0.65108187  0.80290661  0.29520987    -0.39800
N3498       N  0.71057481  0.80086325  0.35691881    -0.37400
N3499       N  0.65236653  0.69646404  0.43897493    -0.38500
N3500       N  0.58928377  0.70764056  0.38669875    -0.40100
C3501       C  0.87267223  0.73870605  0.34463876    -0.05100
C3502       C  0.89544350  0.75046927  0.35609225     0.09100
C3503       C  0.89540044  0.76282062  0.38687421    -0.02400
C3504       C  0.87276691  0.76415663  0.40559123    -0.00700
C3505       C  0.85006650  0.75109289  0.39528388    -0.04300
C3506       C  0.85028838  0.73843480  0.36434364     0.02700
C3507       C  0.91952872  0.75027161  0.33576533     0.09500
C3508       C  0.91896167  0.77389489  0.39967775     0.35400
C3509       C  0.82794146  0.72433676  0.35297173     0.38900
C3510       C  0.92873832  0.77375218  0.32173009    -0.04700
C3511       C  0.95216362  0.77396665  0.30452764     0.02500
C3512       C  0.96531739  0.75032762  0.29834615    -0.04300
C3513       C  0.95695458  0.72714423  0.31374352    -0.00500
C3514       C  0.93419876  0.72710720  0.33243506    -0.03100
C3515       C  0.91410679  0.79776519  0.32502195     0.36200
C3516       C  0.97222809  0.70348677  0.31095062     0.39800
C3517       C  0.96359782  0.79871610  0.29517648     0.38900
C3518       C  0.92619646  0.70336816  0.34885884     0.35900
C3519       C  0.87241957  0.72686741  0.31241036     0.36500
C3520       C  0.87311795  0.77990251  0.43510531     0.39800
N3521       N  0.97279851  0.81849159  0.28799619    -0.38300
N3522       N  0.90240934  0.81692239  0.32755329    -0.39900
N3523       N  0.98462182  0.68478596  0.30849168    -0.37600
N3524       N  0.91989476  0.68439849  0.36200137    -0.40000
N3525       N  0.93771582  0.78264139  0.41000562    -0.39800
N3526       N  0.87409824  0.79268683  0.45841823    -0.37400
N3527       N  0.81023341  0.71295493  0.34367496    -0.38500
N3528       N  0.87248559  0.71755731  0.28660800    -0.40100
C3529       C  0.77655786  0.86769582  0.35230079    -0.05100
C3530       C  0.75453145  0.88381750  0.35218735     0.09100
C3531       C  0.73378360  0.87737328  0.37266676    -0.02400
C3532       C  0.73484130  0.85488925  0.39264578    -0.00700
C3533       C  0.75686756  0.83876485  0.39300872    -0.04300
C3534       C  0.77773717  0.84524877  0.37261784     0.02700
C3535       C  0.75250818  0.90699597  0.32955151     0.09500
C3536       C  0.71126669  0.89402433  0.37327110     0.35400
C3537       C  0.80067180  0.82925575  0.37326015     0.38900
C3538       C  0.74608741  0.90317310  0.29642665    -0.04700
C3539       C  0.74219433  0.92487176  0.27556370     0.02500
C3540       C  0.74438399  0.95091724  0.28769341    -0.04300
C3541       C  0.75149747  0.95458530  0.32078280    -0.00500
C3542       C  0.75556322  0.93276992  0.34149092    -0.03100
C3543       C  0.74302239  0.87671898  0.28398528     0.36200
C3544       C  0.75369875  0.98072669  0.33428402     0.39800
C3545       C  0.73662746  0.92013842  0.24131531     0.38900
C3546       C  0.76245518  0.93682489  0.37544497     0.35900
C3547       C  0.79816686  0.87463933  0.33193327     0.36500
C3548       C  0.71263314  0.84776518  0.41177512     0.39800
N3549       N  0.73212497  0.91622871  0.21405274    -0.38300
N3550       N  0.74063738  0.85555956  0.27425868    -0.39900
N3551       N  0.75573104  0.00134507  0.34576273    -0.37600
N3552       N  0.76788902  0.94010406  0.40255153    -0.40000
N3553       N  0.69340320  0.90742482  0.37399594    -0.39800
N3554       N  0.69451598  0.84212409  0.42630467    -0.37400
N3555       N  0.81895797  0.81645861  0.37386463    -0.38500
N3556       N  0.81532035  0.88041827  0.31561936    -0.40100
C3557       C  0.77590416  0.61643286  0.37240128    -0.05100
C3558       C  0.75697501  0.61568956  0.34783883     0.09100
C3559       C  0.74106283  0.63778006  0.34317573    -0.02400
C3560       C  0.74282730  0.65964974  0.36436355    -0.00700
C3561       C  0.76122379  0.66005063  0.38972468    -0.04300
C3562       C  0.77828192  0.63860964  0.39285424     0.02700
C3563       C  0.75293730  0.59109545  0.32810610     0.09500
C3564       C  0.72270744  0.63787897  0.31662165     0.35400
C3565       C  0.79870561  0.63937119  0.41676251     0.38900
C3566       C  0.73175033  0.57483429  0.33459340    -0.04700
C3567       C  0.72744427  0.55204434  0.31568705     0.02500
C3568       C  0.74494015  0.54449047  0.29087449    -0.04300
C3569       C  0.76749215  0.55954172  0.28678166    -0.00500
C3570       C  0.77081889  0.58329867  0.30418012    -0.03100
C3571       C  0.71459375  0.58141344  0.36125724     0.36200
C3572       C  0.78799672  0.55058849  0.26584503     0.39800
C3573       C  0.70557602  0.53565780  0.32309051     0.38900
C3574       C  0.79259717  0.59998708  0.29723336     0.35900
C3575       C  0.79270612  0.59408623  0.37702123     0.36500
C3576       C  0.72470624  0.68103068  0.36112743     0.39800
N3577       N  0.68817190  0.52266865  0.32947485    -0.38300
N3578       N  0.70109170  0.58672204  0.38267700    -0.39900
N3579       N  0.80549041  0.54406354  0.25055213    -0.37600
N3580       N  0.80990362  0.61337398  0.29170463    -0.40000
N3581       N  0.70814972  0.63802176  0.29532196    -0.39800
N3582       N  0.71015425  0.69801239  0.35863532    -0.37400
N3583       N  0.81531103  0.63960837  0.43541935    -0.38500
N3584       N  0.80616591  0.57629669  0.38052811    -0.40100
loop_ 
_geom_bond_atom_site_label_1 
_geom_bond_atom_site_label_2 
_geom_bond_distance 
_geom_bond_site_symmetry_2 
_ccdc_geom_bond_type 
O1          Zr37   2.466       .  S
O1           C12   1.298       .  A
O2          Zr36   2.462       .  S
O2           C13   1.297       .  A
O3           Zr9   2.418       .  S
O3           C14   1.287       .  A
O4           Zr9   2.424       .  S
O4           C15   1.288       .  A
O5          Zr39   2.422       .  S
O5           C15   1.289       .  A
O6          Zr38   2.423       .  S
O6           C14   1.289       .  A
O7           Zr9   2.428       .  S
O7           C13   1.290       .  A
O8           Zr9   2.435       .  S
O8           C12   1.292       .  A
Zr9          O10   2.335       .  S
Zr9          O11   2.334       .  S
Zr9          O19   2.335       .  S
Zr9          O17   2.338       .  S
O10         Zr36   2.350       .  S
O10         Zr39   2.326       .  S
O11         Zr37   2.350       .  S
O11         Zr38   2.336       .  S
C12         C873   1.495       .  S
C13         C621   1.509       .  S
C14         C677   1.491       .  S
C15         C705   1.484       .  S
H16          O17   0.971       .  S
O17         Zr36   2.350       .  S
O17         Zr38   2.332       .  S
H18          O19   0.972       .  S
O19         Zr37   2.361       .  S
O19         Zr39   2.344       .  S
O20         Zr36   2.477       .  S
O20          C43   1.300       .  A
O21         Zr37   2.471       .  S
O21          C44   1.298       .  A
O22         Zr38   2.440       .  S
O22          C45   1.293       .  A
O23         Zr39   2.446       .  S
O23          C46   1.294       .  A
O24         Zr39   2.425       .  S
O24          C47   1.290       .  A
O25         Zr38   2.428       .  S
O25          C48   1.291       .  A
O26         Zr40   2.415       .  S
O26          C49   1.288       .  A
O27         Zr40   2.421       .  S
O27          C50   1.288       .  A
O28         Zr38   2.428       .  S
O28          C49   1.290       .  A
O29         Zr39   2.414       .  S
O29          C50   1.287       .  A
O30         Zr36   2.465       .  S
O30          C45   1.297       .  A
O31         Zr37   2.489       .  S
O31          C48   1.302       .  A
O32         Zr37   2.478       .  S
O32          C47   1.300       .  A
O33         Zr36   2.448       .  S
O33          C46   1.294       .  A
O34         Zr40   2.431       .  S
O34          C43   1.291       .  A
O35         Zr40   2.438       .  S
O35          C44   1.292       .  A
Zr36         O42   2.345       .  S
Zr36         O54   2.351       .  S
Zr37         O41   2.350       .  S
Zr37         O52   2.351       .  S
Zr38         O42   2.333       .  S
Zr38         O52   2.344       .  S
Zr39         O41   2.338       .  S
Zr39         O54   2.336       .  S
Zr40         O41   2.329       .  S
Zr40         O42   2.340       .  S
Zr40         O54   2.337       .  S
Zr40         O52   2.337       .  S
C43         C649   1.497       .  S
C44         C845   1.495       .  S
C45         C572   1.496       .  S
C46         C593   1.491       .  S
C47         C789   1.499       .  S
C48         C817   1.513       .  S
C49         C761   1.486       .  S
C50         C733   1.483       .  S
H51          O52   0.971       .  S
H53          O54   0.970       .  S
N55          C60   1.350   1_565  A
N55         C955   1.351       .  A
N55          H87   1.035       .  S
N56          C64   1.348       .  A
N56        C1855   1.350   1_455  A
N57          C62   1.350   1_565  A
N57         C957   1.350       .  A
N57          H88   1.036       .  S
N58          C66   1.348       .  A
N58        C1857   1.348   1_455  A
C59         N951   1.351       .  A
C59          C67   1.386       .  A
C59          C75   1.412       .  A
C60          C76   1.413       .  A
C60          C68   1.388       .  A
C61         N953   1.350       .  A
C61          C69   1.389       .  A
C61          C78   1.413       .  A
C62          C77   1.408       .  A
C62          C70   1.386       .  A
C63        N1848   1.350       .  A
C63          C75   1.411       .  A
C63          C71   1.386       .  A
C64          C78   1.410       .  A
C64          C72   1.387       .  A
C65        N1850   1.348       .  A
C65          C73   1.388       .  A
C65          C76   1.410       .  A
C66          C74   1.385       .  A
C66          C77   1.407       .  A
C67         C964   1.372       .  A
C67          H79   1.083       .  S
C68         C963   1.372   1_545  A
C68          H80   1.081       .  S
C69         C966   1.368       .  A
C69          H81   1.082       .  S
C70         C965   1.368   1_545  A
C70          H82   1.083       .  S
C71        C1864   1.370       .  A
C71          H83   1.082       .  S
C72        C1863   1.370   1_455  A
C72          H84   1.082       .  S
C73        C1866   1.367       .  A
C73          H85   1.082       .  S
C74        C1865   1.367   1_455  A
C74          H86   1.082       .  S
C75         C768   1.491       .  S
C76         C684   1.482       .  S
C77         C712   1.484       .  S
C78         C740   1.482       .  S
O89        Zr125   2.480       .  S
O89         C100   1.300       .  A
O90        Zr124   2.473       .  S
O90         C101   1.299       .  A
O91       Zr1889   2.406   1_455  S
O91         C102   1.285       .  A
O92         Zr97   2.414   1_556  S
O92         C103   1.285       .  A
O93        Zr127   2.434       .  S
O93         C103   1.290       .  A
O94        Zr126   2.450       .  S
O94         C102   1.294       .  A
O95         Zr97   2.421       .  S
O95         C101   1.289       .  A
O96         Zr97   2.419   1_556  S
O96         C100   1.287       .  A
Zr97       O1883   2.406       .  S
Zr97         O98   2.333       .  S
Zr97        O107   2.331   1_554  S
Zr97       O1891   2.334   1_554  S
Zr97       O1897   2.334       .  S
O98        Zr124   2.346       .  S
O98        Zr127   2.336   1_554  S
O99        Zr126   2.338   1_556  S
O99       Zr1889   2.334   1_456  S
O99       Zr1917   2.350   1_455  S
C100        C537   1.517       .  S
C101        C292   1.508       .  S
C102        C341   1.477       .  S
C103        C369   1.467       .  S
H104        O105   0.972       .  S
O105       Zr126   2.338       .  S
O105      Zr1889   2.334   1_455  S
O105      Zr1916   2.351   1_455  S
H106        O107   0.971       .  S
O107       Zr125   2.349       .  S
O107       Zr127   2.342       .  S
O108      Zr1020   2.473   1_545  S
O108        C131   1.299       .  A
O109      Zr1021   2.466   1_545  S
O109        C132   1.298       .  A
O110       Zr126   2.435       .  S
O110        C133   1.291       .  A
O111       Zr127   2.444   1_554  S
O111        C134   1.293       .  A
O112       Zr127   2.431       .  S
O112       C1031   1.291       .  A
O113       Zr126   2.430   1_556  S
O113       C1032   1.290       .  A
O114      Zr1920   2.439   1_454  S
O114        C137   1.292       .  A
O115       Zr128   2.446       .  S
O115        C138   1.293       .  A
O116      Zr1022   2.439   1_545  S
O116        C137   1.292       .  A
O117      Zr1023   2.435   1_545  S
O117        C138   1.291       .  A
O118      Zr1916   2.478   1_455  S
O118        C133   1.299       .  A
O119      Zr2813   2.485   1_455  S
O119        C136   1.301       .  A
O120      Zr1021   2.481       .  S
O120        C135   1.301       .  A
O121       Zr124   2.461       .  S
O121        C134   1.297       .  A
O122       Zr128   2.447   1_554  S
O122        C131   1.294       .  A
O123       Zr128   2.441       .  S
O123        C132   1.292       .  A
Zr124      O1004   2.473       .  S
Zr124      O1910   2.478       .  S
Zr124      O1897   2.351       .  S
Zr124      O2818   2.350       .  S
Zr124      O1038   2.358       .  S
Zr125      O1005   2.466       .  S
Zr125      O2807   2.485       .  S
Zr125      O1016   2.481       .  S
Zr125      O1891   2.350       .  S
Zr125      O1025   2.358       .  S
Zr125      O2828   2.362       .  S
Zr126      O1012   2.439       .  S
Zr126      O1026   2.340       .  S
Zr126      O1036   2.344   1_554  S
Zr127      O1013   2.435       .  S
Zr127      O1025   2.339       .  S
Zr127      O1038   2.339   1_556  S
Zr128      O1906   2.439   1_556  S
Zr128       O129   2.343       .  S
Zr128       O142   2.342   1_556  S
Zr128      O1922   2.341   1_556  S
Zr128      O1932   2.345       .  S
O129      Zr1021   2.358   1_545  S
O129      Zr1023   2.339   1_545  S
O130      Zr2812   2.350   1_445  S
O130      Zr1022   2.340   1_545  S
O130      Zr1920   2.341   1_454  S
C131        C320   1.514       .  S
C132        C509   1.489       .  S
C133        C229   1.491       .  S
C134        C264   1.509       .  S
C135       O1008   1.291       .  A
C135       C1356   1.512       .  S
C136       O1009   1.290   1_565  A
C136       C1384   1.523       .  S
C137        C425   1.497       .  S
C138        C404   1.502       .  S
H139        O140   0.965       .  S
O140      Zr2813   2.362   1_445  S
O140      Zr1022   2.344   1_546  S
O140      Zr1920   2.345   1_455  S
H141        O142   0.969       .  S
O142      Zr1020   2.358   1_545  S
O142      Zr1023   2.339   1_544  S
N143        C148   1.351   1_554  A
N143        C147   1.352   1_554  A
N143        H175   1.038       .  S
N144        C151   1.349       .  A
N144        C152   1.349       .  A
N145        C150   1.351       .  A
N145        C149   1.353       .  A
N145        H176   1.035       .  S
N146        C153   1.352       .  A
N146        C154   1.351       .  A
C147        C155   1.388       .  A
C147        C163   1.415   1_556  A
C148        C164   1.410       .  A
C148        C156   1.385       .  A
C149        C157   1.388       .  A
C149        C166   1.417       .  A
C150        C165   1.415       .  A
C150        C158   1.388       .  A
C151        C163   1.415       .  A
C151        C159   1.388       .  A
C152        C166   1.410       .  A
C152        C160   1.385       .  A
C153        C161   1.385       .  A
C153        C164   1.413   1_554  A
C154        C162   1.387       .  A
C154        C165   1.415       .  A
C155        C156   1.373       .  A
C155        H167   1.082       .  S
C156        H168   1.082       .  S
C157        C158   1.370       .  A
C157        H169   1.082       .  S
C158        H170   1.082       .  S
C159        C160   1.372       .  A
C159        H171   1.082       .  S
C160        H172   1.081       .  S
C161        C162   1.375       .  A
C161        H173   1.082       .  S
C162        H174   1.082       .  S
C163        C376   1.497   1_554  S
C164        C397   1.494       .  S
C165        C432   1.489       .  S
C166        C348   1.492       .  S
C177        C178   1.551       .  S
C177        C181   1.538       .  S
C177       C1975   1.535       .  S
C177        C796   1.567       .  S
C178        H185   1.079       .  S
C178       C1971   1.369       .  D
C179        C180   1.543       .  S
C179       C1970   1.369       .  D
C179        C313   1.517       .  S
C180        C184   1.555       .  S
C180        C182   1.551       .  S
C180        H186   1.101       .  S
C181        H187   1.085       .  S
C181       C1974   1.375       .  D
C182       C1973   1.375       .  D
C182        C285   1.525       .  S
C183       C1969   1.535       .  S
C183        H188   1.086       .  S
C183        C184   1.362       .  D
C184        C824   1.494       .  S
C189        C190   1.542       .  S
C189        C195   1.548       .  S
C189       C1089   1.534       .  S
C189        C236   1.567       .  S
C190        H197   1.084       .  S
C190        C191   1.367       .  D
C191        C192   1.552       .  S
C191        C852   1.511       .  S
C192        C196   1.545       .  S
C192       C1090   1.551       .  S
C192        H198   1.110       .  S
C193       C1085   1.534   1_545  S
C193        H199   1.086       .  S
C193        C194   1.369       .  D
C194       C1088   1.551   1_545  S
C194        C880   1.510       .  S
C195        H200   1.083       .  S
C195        C196   1.369       .  D
C196        C257   1.502       .  S
C201        C202   1.541       .  S
C201        C205   1.531       .  S
C201       C1999   1.549       .  S
C201        C600   1.565       .  S
C202        H209   1.084       .  S
C202       C1995   1.366       .  D
C203        C204   1.550       .  S
C203       C1994   1.366       .  D
C203        C544   1.503       .  S
C204        C208   1.553       .  S
C204        C206   1.555       .  S
C204        H210   1.109       .  S
C205        H211   1.086       .  S
C205       C1998   1.367       .  D
C206       C1997   1.367       .  D
C206        C516   1.513       .  S
C207       C1993   1.549       .  S
C207        H212   1.083       .  S
C207        C208   1.372       .  D
C208        C565   1.518       .  S
C213        C219   1.535       .  S
C213        C217   1.545       .  S
C213       C1110   1.539       .  S
C213        C481   1.564       .  S
C214       C1109   1.539   1_545  S
C214        H221   1.081       .  S
C214        C215   1.368       .  D
C215       C1112   1.548   1_545  S
C215        C628   1.510       .  S
C216        C220   1.548       .  S
C216        C218   1.545       .  S
C216       C1111   1.548       .  S
C216        H222   1.108       .  S
C217        H223   1.084       .  S
C217        C218   1.366       .  D
C218        C656   1.499       .  S
C219        H224   1.086       .  S
C219        C220   1.372       .  D
C220        C453   1.507       .  S
C225        C226   1.414       .  A
C225        C230   1.416       .  A
C225        C243   1.451       .  S
C226        C231   1.511       .  S
C226       C1123   1.416       .  A
C227        C228   1.415       .  A
C227       C1122   1.416   1_545  A
C227        C232   1.450       .  S
C228       C1125   1.412   1_545  A
C228        C244   1.451       .  S
C229        C230   1.414       .  A
C229       C1124   1.412       .  A
C230        C233   1.449       .  S
C231        C234   1.408       .  A
C231        C238   1.409       .  A
C232        N249   1.157       .  T
C233        N251   1.157       .  T
C234        C235   1.415       .  A
C234        C239   1.453       .  S
C235        C236   1.427       .  A
C235        C241   1.447       .  S
C236        C237   1.431       .  A
C237        C238   1.419       .  A
C237        C240   1.451       .  S
C238        C242   1.451       .  S
C239        N246   1.157       .  T
C240        N247   1.157       .  T
C241        N245   1.156       .  T
C242        N248   1.157       .  T
C243        N252   1.157       .  T
C244        N250   1.157       .  T
C253        C258   1.412       .  A
C253       C1150   1.409   1_545  A
C253        C271   1.451       .  S
C254        C259   1.503       .  S
C254        C255   1.410       .  A
C254       C1149   1.409       .  A
C255        C256   1.416       .  A
C255        C260   1.451       .  S
C256        C257   1.416       .  A
C256        C272   1.447       .  S
C257       C1154   1.418       .  A
C258       C1153   1.418   1_545  A
C258        C261   1.450       .  S
C259        C266   1.407       .  A
C259       C1158   1.409       .  A
C260        N277   1.157       .  T
C261        N279   1.157       .  T
C262        C263   1.416       .  A
C262       C1155   1.409   1_545  A
C262        C267   1.451       .  S
C263       C1160   1.423   1_545  A
C263        C269   1.451       .  S
C264        C265   1.425       .  A
C264       C1159   1.423       .  A
C265        C266   1.414       .  A
C265        C268   1.450       .  S
C266        C270   1.452       .  S
C267        N274   1.157       .  T
C268        N275   1.157       .  T
C269        N273   1.157       .  T
C270        N276   1.157       .  T
C271        N280   1.157       .  T
C272        N278   1.157       .  T
C281        C282   1.407       .  A
C281        C286   1.418       .  A
C281        C299   1.453       .  S
C282        C287   1.503       .  S
C282       C2075   1.406       .  A
C283        C284   1.412       .  A
C283       C2074   1.406   1_455  A
C283        C288   1.453       .  S
C284       C2077   1.427   1_455  A
C284        C300   1.451       .  S
C285        C286   1.429       .  A
C285       C2076   1.427       .  A
C286        C289   1.447       .  S
C287        C290   1.411       .  A
C287       C2086   1.406       .  A
C288        N305   1.157       .  T
C289        N307   1.158       .  T
C290        C291   1.416       .  A
C290        C295   1.450       .  S
C291        C292   1.421       .  A
C291        C297   1.451       .  S
C292       C2085   1.428       .  A
C293        C294   1.412       .  A
C293       C2084   1.428       .  A
C293        C296   1.451       .  S
C294       C2079   1.406       .  A
C294        C298   1.453       .  S
C295        N302   1.157       .  T
C296        N303   1.157       .  T
C297        N301   1.158       .  T
C298        N304   1.157       .  T
C299        N308   1.157       .  T
C300        N306   1.157       .  T
C309        C314   1.415       .  A
C309       C2102   1.409   1_455  A
C309        C327   1.451       .  S
C310        C315   1.510       .  S
C310        C311   1.411       .  A
C310       C2101   1.409       .  A
C311        C312   1.419       .  A
C311        C316   1.450       .  S
C312        C313   1.420       .  A
C312        C328   1.446       .  S
C313       C2106   1.421       .  A
C314       C2105   1.421       .  A
C314        C317   1.449       .  S
C315        C318   1.410       .  A
C315        C322   1.409       .  A
C316        N333   1.157       .  T
C317        N335   1.157       .  T
C318        C319   1.419       .  A
C318        C323   1.450       .  S
C319        C320   1.422       .  A
C319        C325   1.449       .  S
C320        C321   1.425       .  A
C321        C322   1.416       .  A
C321       C2116   1.451       .  S
C322       C2118   1.451       .  S
C323        N330   1.157       .  T
C324       C2113   1.451       .  S
C324        N331   1.157       .  T
C325        N329   1.157       .  T
C326       C2114   1.451       .  S
C326        N332   1.157       .  T
C327        N336   1.157       .  T
C328        N334   1.157       .  T
C337        C338   1.414   1_556  A
C337        C342   1.402       .  A
C337        C355   1.451       .  S
C338        C343   1.495       .  S
C338        C339   1.414       .  A
C339        C340   1.408       .  A
C339        C344   1.452       .  S
C340        C341   1.414       .  A
C340        C356   1.450       .  S
C341        C342   1.406   1_554  A
C342        C345   1.449       .  S
C343        C346   1.416       .  A
C343        C350   1.413   1_554  A
C344        N361   1.157       .  T
C345        N363   1.157       .  T
C346        C347   1.410       .  A
C346        C351   1.452       .  S
C347        C348   1.411       .  A
C347        C353   1.450       .  S
C348        C349   1.413   1_554  A
C349        C350   1.404       .  A
C349        C352   1.452       .  S
C350        C354   1.452       .  S
C351        N358   1.157       .  T
C352        N359   1.157       .  T
C353        N357   1.157       .  T
C354        N360   1.157       .  T
C355        N364   1.157       .  T
C356        N362   1.157       .  T
C365        C366   1.414       .  A
C365        C370   1.408       .  A
C365        C383   1.450       .  S
C366        C371   1.492       .  S
C366        C367   1.413   1_556  A
C367        C368   1.404       .  A
C367        C372   1.451       .  S
C368        C369   1.407   1_554  A
C368        C384   1.452       .  S
C369        C370   1.409       .  A
C370        C373   1.452       .  S
C371        C374   1.412   1_556  A
C371        C378   1.412       .  A
C372        N389   1.157       .  T
C373        N391   1.157       .  T
C374        C375   1.405       .  A
C374        C379   1.453       .  S
C375        C376   1.415   1_554  A
C375        C381   1.452       .  S
C376        C377   1.416       .  A
C377        C378   1.408       .  A
C377        C380   1.452       .  S
C378        C382   1.451       .  S
C379        N386   1.157       .  T
C380        N387   1.157       .  T
C381        N385   1.157       .  T
C382        N388   1.157       .  T
C383        N392   1.157       .  T
C384        N390   1.157       .  T
C393        C394   1.412       .  A
C393        C398   1.413       .  A
C393        C411   1.450       .  S
C394        C399   1.496       .  S
C394        C395   1.411   1_556  A
C395        C396   1.407       .  A
C395        C400   1.451       .  S
C396        C397   1.412   1_554  A
C396        C412   1.451       .  S
C397        C398   1.412       .  A
C398        C401   1.449       .  S
C399        C402   1.408       .  A
C399        C406   1.407       .  A
C400        N417   1.157       .  T
C401        N419   1.157       .  T
C402        C403   1.415       .  A
C402        C407   1.451       .  S
C403        C404   1.423       .  A
C403        C409   1.451       .  S
C404        C405   1.423   1_556  A
C405        C406   1.409   1_554  A
C405        C408   1.452       .  S
C406        C410   1.453   1_556  S
C407        N414   1.157       .  T
C408        N415   1.157       .  T
C409        N413   1.157       .  T
C410        N416   1.157       .  T
C411        N420   1.157       .  T
C412        N418   1.157       .  T
C421        C422   1.407       .  A
C421        C426   1.410       .  A
C421        C439   1.451       .  S
C422        C427   1.490       .  S
C422        C423   1.406       .  A
C423        C424   1.406       .  A
C423        C428   1.453   1_554  S
C424        C425   1.419       .  A
C424        C440   1.445   1_554  S
C425        C426   1.421       .  A
C426        C429   1.449       .  S
C427        C430   1.411       .  A
C427        C434   1.412   1_554  A
C428        N445   1.157       .  T
C429        N447   1.156       .  T
C430        C431   1.409       .  A
C430        C435   1.450       .  S
C431        C432   1.411       .  A
C431        C437   1.450       .  S
C432        C433   1.410   1_554  A
C433        C434   1.405       .  A
C433        C436   1.451       .  S
C434        C438   1.452       .  S
C435        N442   1.157       .  T
C436        N443   1.157       .  T
C437        N441   1.157       .  T
C438        N444   1.157       .  T
C439        N448   1.157       .  T
C440        N446   1.155       .  T
C449        C454   1.412       .  A
C449       C1346   1.410   1_545  A
C449        C467   1.451       .  S
C450        C455   1.503       .  S
C450        C451   1.410       .  A
C450       C1345   1.410       .  A
C451        C452   1.416       .  A
C451        C456   1.450       .  S
C452        C453   1.419       .  A
C452        C468   1.447       .  S
C453       C1350   1.419       .  A
C454       C1349   1.419       .  A
C454        C457   1.450       .  S
C455        C458   1.407       .  A
C455       C1358   1.410       .  A
C456        N473   1.157       .  T
C457        N475   1.157       .  T
C458        C459   1.412       .  A
C458        C463   1.454       .  S
C459        C460   1.427       .  A
C459        C465   1.451       .  S
C460       C1031   1.512       .  S
C460       C1357   1.422       .  A
C461        C462   1.419       .  A
C461       C1356   1.422   1_545  A
C461        C464   1.450       .  S
C462       C1351   1.410   1_545  A
C462        C466   1.450       .  S
C463        N470   1.157       .  T
C464        N471   1.157       .  T
C465        N469   1.157       .  T
C466        N472   1.157       .  T
C467        N476   1.157       .  T
C468        N474   1.157       .  T
C477        C478   1.410       .  A
C477        C482   1.416       .  A
C477        C495   1.452       .  S
C478        C483   1.509       .  S
C478       C1375   1.408       .  A
C479        C480   1.416       .  A
C479       C1374   1.408   1_545  A
C479        C484   1.452       .  S
C480       C1377   1.430   1_545  A
C480        C496   1.450       .  S
C481        C482   1.425       .  A
C481       C1376   1.430       .  A
C482        C485   1.449       .  S
C483        C490   1.410       .  A
C483       C1382   1.406       .  A
C484        N501   1.157       .  T
C485        N503   1.157       .  T
C486        C487   1.412       .  A
C486       C1379   1.406   1_565  A
C486        C491   1.454       .  S
C487       C1384   1.434       .  A
C487        C493   1.454       .  S
C488       C1032   1.523       .  S
C488        C489   1.427       .  A
C488       C1383   1.434       .  A
C489        C490   1.421       .  A
C489        C492   1.450       .  S
C490        C494   1.451       .  S
C491        N498   1.157       .  T
C492        N499   1.158       .  T
C493        N497   1.158       .  T
C494        N500   1.157       .  T
C495        N504   1.157       .  T
C496        N502   1.157       .  T
C505        C510   1.415       .  A
C505       C2298   1.414   1_455  A
C505        C523   1.450       .  S
C506        C511   1.508       .  S
C506        C507   1.414       .  A
C506       C2297   1.414       .  A
C507        C508   1.416       .  A
C507        C512   1.449       .  S
C508        C509   1.413       .  A
C508        C524   1.450       .  S
C509       C2302   1.413       .  A
C510       C2301   1.413   1_455  A
C510        C513   1.452       .  S
C511        C518   1.412       .  A
C511       C2306   1.408       .  A
C512        N529   1.157       .  T
C513        N531   1.158       .  T
C514        C515   1.414       .  A
C514       C2303   1.408   1_455  A
C514        C519   1.451       .  S
C515       C2308   1.422       .  A
C515        C521   1.449       .  S
C516        C517   1.418       .  A
C516       C2307   1.422       .  A
C517        C518   1.419       .  A
C517        C520   1.448       .  S
C518        C522   1.450       .  S
C519        N526   1.157       .  T
C520        N527   1.157       .  T
C521        N525   1.156       .  T
C522        N528   1.157       .  T
C523        N532   1.157       .  T
C524        N530   1.157       .  T
C533        C538   1.419       .  A
C533       C2326   1.411   1_455  A
C533        C551   1.450       .  S
C534        C539   1.505       .  S
C534        C535   1.405       .  A
C534       C2325   1.411       .  A
C535        C536   1.412       .  A
C535        C540   1.454       .  S
C536        C537   1.432       .  A
C536        C552   1.453       .  S
C537       C2330   1.424       .  A
C538       C2329   1.424   1_455  A
C538        C541   1.450       .  S
C539        C546   1.412       .  A
C539       C2334   1.411       .  A
C540        N557   1.157       .  T
C541        N559   1.157       .  T
C542        C543   1.412       .  A
C542       C2331   1.411   1_455  A
C542        C547   1.451       .  S
C543       C2336   1.416       .  A
C543        C549   1.450       .  S
C544        C545   1.414       .  A
C544       C2335   1.416       .  A
C545        C546   1.417       .  A
C545        C548   1.447       .  S
C546        C550   1.450       .  S
C547        N554   1.157       .  T
C548        N555   1.157       .  T
C549        N553   1.157       .  T
C550        N556   1.157       .  T
C551        N560   1.157       .  T
C552        N558   1.158       .  T
C561        C562   1.411       .  A
C561        C566   1.418       .  A
C561        C579   1.451       .  S
C562        C567   1.512       .  S
C562        C563   1.411       .  A
C563        C564   1.418       .  A
C563        C568   1.452       .  S
C564        C565   1.425       .  A
C564        C580   1.451       .  S
C565        C566   1.420       .  A
C566        C569   1.448       .  S
C567        C570   1.415       .  A
C567        C574   1.413       .  A
C568        N585   1.157       .  T
C569        N587   1.157       .  T
C570        C571   1.417       .  A
C570        C575   1.449       .  S
C571        C572   1.414       .  A
C571        C577   1.451       .  S
C572        C573   1.416       .  A
C573        C574   1.414       .  A
C573        C576   1.450       .  S
C574        C578   1.451       .  S
C575        N582   1.157       .  T
C576        N583   1.157       .  T
C577        N581   1.157       .  T
C578        N584   1.157       .  T
C579        N588   1.157       .  T
C580        N586   1.157       .  T
C589        C590   1.410       .  A
C589        C594   1.410       .  A
C589        C607   1.450       .  S
C590        C595   1.501       .  S
C590        C591   1.412       .  A
C591        C592   1.415       .  A
C591        C596   1.450       .  S
C592        C593   1.416       .  A
C592        C608   1.450       .  S
C593        C594   1.415       .  A
C594        C597   1.450       .  S
C595        C598   1.405       .  A
C595        C602   1.403       .  A
C596        N613   1.157       .  T
C597        N615   1.157       .  T
C598        C599   1.415       .  A
C598        C603   1.452       .  S
C599        C600   1.430       .  A
C599        C605   1.449       .  S
C600        C601   1.434       .  A
C601        C602   1.416       .  A
C601        C604   1.447       .  S
C602        C606   1.454       .  S
C603        N610   1.157       .  T
C604        N611   1.156       .  T
C605        N609   1.157       .  T
C606        N612   1.157       .  T
C607        N616   1.157       .  T
C608        N614   1.157       .  T
C617        C618   1.412       .  A
C617        C622   1.417       .  A
C617        C635   1.451       .  S
C618        C623   1.504       .  S
C618        C619   1.408       .  A
C619        C620   1.407       .  A
C619        C624   1.455       .  S
C620        C621   1.426       .  A
C620        C636   1.452       .  S
C621        C622   1.424       .  A
C622        C625   1.451       .  S
C623        C626   1.410       .  A
C623        C630   1.411       .  A
C624        N641   1.157       .  T
C625        N643   1.158       .  T
C626        C627   1.408       .  A
C626        C631   1.453       .  S
C627        C628   1.422       .  A
C627        C633   1.452       .  S
C628        C629   1.422       .  A
C629        C630   1.416       .  A
C629        C632   1.448       .  S
C630        C634   1.452       .  S
C631        N638   1.157       .  T
C632        N639   1.157       .  T
C633        N637   1.157       .  T
C634        N640   1.157       .  T
C635        N644   1.157       .  T
C636        N642   1.157       .  T
C645        C646   1.412       .  A
C645        C650   1.414       .  A
C645        C663   1.451       .  S
C646        C651   1.511       .  S
C646        C647   1.416       .  A
C647        C648   1.417       .  A
C647        C652   1.450       .  S
C648        C649   1.413       .  A
C648        C664   1.449       .  S
C649        C650   1.417       .  A
C650        C653   1.449       .  S
C651        C654   1.417       .  A
C651        C658   1.413       .  A
C652        N669   1.157       .  T
C653        N671   1.156       .  T
C654        C655   1.417       .  A
C654        C659   1.451       .  S
C655        C656   1.412       .  A
C655        C661   1.449       .  S
C656        C657   1.415       .  A
C657        C658   1.414       .  A
C657        C660   1.451       .  S
C658        C662   1.450       .  S
C659        N666   1.157       .  T
C660        N667   1.157       .  T
C661        N665   1.157       .  T
C662        N668   1.157       .  T
C663        N672   1.157       .  T
C664        N670   1.157       .  T
C673        C674   1.406       .  A
C673        C678   1.407       .  A
C673        C691   1.453       .  S
C674        C679   1.482       .  S
C674        C675   1.404       .  A
C675        C676   1.403       .  A
C675        C680   1.453       .  S
C676        C677   1.423       .  A
C676        C692   1.452       .  S
C677        C678   1.424       .  A
C678        C681   1.452       .  S
C679        C682   1.411       .  A
C679        C686   1.408       .  A
C680        N697   1.157       .  T
C681        N699   1.157       .  T
C682        C683   1.404       .  A
C682        C687   1.451       .  S
C683        C684   1.409       .  A
C683        C689   1.451       .  S
C684        C685   1.413       .  A
C685        C686   1.402       .  A
C685        C688   1.451       .  S
C686        C690   1.452       .  S
C687        N694   1.157       .  T
C688        N695   1.157       .  T
C689        N693   1.157       .  T
C690        N696   1.157       .  T
C691        N700   1.157       .  T
C692        N698   1.157       .  T
C701        C702   1.406       .  A
C701        C706   1.404       .  A
C701        C719   1.453       .  S
C702        C707   1.483       .  S
C702        C703   1.408       .  A
C703        C704   1.406       .  A
C703        C708   1.452       .  S
C704        C705   1.418       .  A
C704        C720   1.452       .  S
C705        C706   1.419       .  A
C706        C709   1.450       .  S
C707        C710   1.410       .  A
C707        C714   1.410       .  A
C708        N725   1.157       .  T
C709        N727   1.156       .  T
C710        C711   1.402       .  A
C710        C715   1.452       .  S
C711        C712   1.410       .  A
C711        C717   1.451       .  S
C712        C713   1.412       .  A
C713        C714   1.405       .  A
C713        C716   1.451       .  S
C714        C718   1.451       .  S
C715        N722   1.157       .  T
C716        N723   1.157       .  T
C717        N721   1.157       .  T
C718        N724   1.157       .  T
C719        N728   1.157       .  T
C720        N726   1.157       .  T
C729        C730   1.407       .  A
C729        C734   1.404       .  A
C729        C747   1.453       .  S
C730        C735   1.481       .  S
C730        C731   1.407       .  A
C731        C732   1.403       .  A
C731        C736   1.453       .  S
C732        C733   1.420       .  A
C732        C748   1.453       .  S
C733        C734   1.420       .  A
C734        C737   1.452       .  S
C735        C738   1.411       .  A
C735        C742   1.410       .  A
C736        N753   1.157       .  T
C737        N755   1.157       .  T
C738        C739   1.403       .  A
C738        C743   1.452       .  S
C739        C740   1.410       .  A
C739        C745   1.451       .  S
C740        C741   1.412       .  A
C741        C742   1.402       .  A
C741        C744   1.452       .  S
C742        C746   1.452       .  S
C743        N750   1.157       .  T
C744        N751   1.157       .  T
C745        N749   1.157       .  T
C746        N752   1.157       .  T
C747        N756   1.157       .  T
C748        N754   1.157       .  T
C757        C758   1.408       .  A
C757        C762   1.407       .  A
C757        C775   1.451       .  S
C758        C763   1.485       .  S
C758        C759   1.406       .  A
C759        C760   1.406       .  A
C759        C764   1.452       .  S
C760        C761   1.420       .  A
C760        C776   1.452       .  S
C761        C762   1.418       .  A
C762        C765   1.452       .  S
C763        C766   1.410       .  A
C763        C770   1.408       .  A
C764        N781   1.157       .  T
C765        N783   1.157       .  T
C766        C767   1.407       .  A
C766        C771   1.451       .  S
C767        C768   1.413       .  A
C767        C773   1.450       .  S
C768        C769   1.414       .  A
C769        C770   1.405       .  A
C769        C772   1.451       .  S
C770        C774   1.451       .  S
C771        N778   1.157       .  T
C772        N779   1.157       .  T
C773        N777   1.157       .  T
C774        N780   1.157       .  T
C775        N784   1.157       .  T
C776        N782   1.157       .  T
C785        C786   1.409       .  A
C785        C790   1.412       .  A
C785        C803   1.451       .  S
C786        C791   1.505       .  S
C786        C787   1.412       .  A
C787        C788   1.417       .  A
C787        C792   1.450       .  S
C788        C789   1.416       .  A
C788        C804   1.449       .  S
C789        C790   1.420       .  A
C790        C793   1.451       .  S
C791        C794   1.407       .  A
C791        C798   1.405       .  A
C792        N809   1.157       .  T
C793        N811   1.157       .  T
C794        C795   1.418       .  A
C794        C799   1.451       .  S
C795        C796   1.431       .  A
C795        C801   1.452       .  S
C796        C797   1.430       .  A
C797        C798   1.415       .  A
C797        C800   1.446       .  S
C798        C802   1.453       .  S
C799        N806   1.157       .  T
C800        N807   1.157       .  T
C801        N805   1.157       .  T
C802        N808   1.157       .  T
C803        N812   1.157       .  T
C804        N810   1.157       .  T
C813        C814   1.414       .  A
C813        C818   1.422       .  A
C813        C831   1.450       .  S
C814        C819   1.510       .  S
C814        C815   1.408       .  A
C815        C816   1.411       .  A
C815        C820   1.453       .  S
C816        C817   1.425       .  A
C816        C832   1.450       .  S
C817        C818   1.421       .  A
C818        C821   1.449       .  S
C819        C822   1.416       .  A
C819        C826   1.415       .  A
C820        N837   1.157       .  T
C821        N839   1.157       .  T
C822        C823   1.413       .  A
C822        C827   1.450       .  S
C823        C824   1.411       .  A
C823        C829   1.451       .  S
C824        C825   1.412       .  A
C825        C826   1.415       .  A
C825        C828   1.451       .  S
C826        C830   1.450       .  S
C827        N834   1.157       .  T
C828        N835   1.157       .  T
C829        N833   1.158       .  T
C830        N836   1.157       .  T
C831        N840   1.157       .  T
C832        N838   1.156       .  T
C841        C842   1.415       .  A
C841        C846   1.419       .  A
C841        C859   1.449       .  S
C842        C847   1.508       .  S
C842        C843   1.411       .  A
C843        C844   1.412       .  A
C843        C848   1.451       .  S
C844        C845   1.415       .  A
C844        C860   1.448       .  S
C845        C846   1.414       .  A
C846        C849   1.450       .  S
C847        C850   1.410       .  A
C847        C854   1.412       .  A
C848        N865   1.157       .  T
C849        N867   1.157       .  T
C850        C851   1.415       .  A
C850        C855   1.451       .  S
C851        C852   1.423       .  A
C851        C857   1.452       .  S
C852        C853   1.417       .  A
C853        C854   1.417       .  A
C853        C856   1.448       .  S
C854        C858   1.450       .  S
C855        N862   1.157       .  T
C856        N863   1.157       .  T
C857        N861   1.157       .  T
C858        N864   1.157       .  T
C859        N868   1.157       .  T
C860        N866   1.156       .  T
C869        C870   1.411       .  A
C869        C874   1.412       .  A
C869        C887   1.452       .  S
C870        C875   1.507       .  S
C870        C871   1.414       .  A
C871        C872   1.415       .  A
C871        C876   1.450       .  S
C872        C873   1.415       .  A
C872        C888   1.451       .  S
C873        C874   1.417       .  A
C874        C877   1.449       .  S
C875        C878   1.411       .  A
C875        C882   1.411       .  A
C876        N893   1.157       .  T
C877        N895   1.156       .  T
C878        C879   1.414       .  A
C878        C883   1.452       .  S
C879        C880   1.419       .  A
C879        C885   1.450       .  S
C880        C881   1.418       .  A
C881        C882   1.416       .  A
C881        C884   1.446       .  S
C882        C886   1.452       .  S
C883        N890   1.157       .  T
C884        N891   1.157       .  T
C885        N889   1.157       .  T
C886        N892   1.157       .  T
C887        N896   1.157       .  T
C888        N894   1.157       .  T
O897       Zr933   2.466       .  S
O897        C908   1.298       .  A
O898       Zr932   2.462       .  S
O898        C909   1.297       .  A
O899       Zr905   2.418       .  S
O899        C910   1.287       .  A
O900       Zr905   2.424       .  S
O900        C911   1.288       .  A
O901       Zr935   2.422       .  S
O901        C911   1.289       .  A
O902       Zr934   2.423       .  S
O902        C910   1.289       .  A
O903       Zr905   2.428       .  S
O903        C909   1.290       .  A
O904       Zr905   2.435       .  S
O904        C908   1.292       .  A
Zr905       O906   2.335       .  S
Zr905       O907   2.334       .  S
Zr905       O915   2.335       .  S
Zr905       O913   2.338       .  S
O906       Zr932   2.350       .  S
O906       Zr935   2.326       .  S
O907       Zr933   2.350       .  S
O907       Zr934   2.336       .  S
C908       C1769   1.495       .  S
C909       C1517   1.509       .  S
C910       C1573   1.491       .  S
C911       C1601   1.484       .  S
H912        O913   0.971       .  S
O913       Zr932   2.350       .  S
O913       Zr934   2.332       .  S
H914        O915   0.972       .  S
O915       Zr933   2.361       .  S
O915       Zr935   2.344       .  S
O916       Zr932   2.477       .  S
O916        C939   1.300       .  A
O917       Zr933   2.471       .  S
O917        C940   1.298       .  A
O918       Zr934   2.440       .  S
O918        C941   1.293       .  A
O919       Zr935   2.446       .  S
O919        C942   1.294       .  A
O920       Zr935   2.425       .  S
O920        C943   1.290       .  A
O921       Zr934   2.428       .  S
O921        C944   1.291       .  A
O922       Zr936   2.415       .  S
O922        C945   1.288       .  A
O923       Zr936   2.421       .  S
O923        C946   1.288       .  A
O924       Zr934   2.428       .  S
O924        C945   1.290       .  A
O925       Zr935   2.414       .  S
O925        C946   1.287       .  A
O926       Zr932   2.465       .  S
O926        C941   1.297       .  A
O927       Zr933   2.489       .  S
O927        C944   1.302       .  A
O928       Zr933   2.478       .  S
O928        C943   1.300       .  A
O929       Zr932   2.448       .  S
O929        C942   1.294       .  A
O930       Zr936   2.431       .  S
O930        C939   1.291       .  A
O931       Zr936   2.438       .  S
O931        C940   1.292       .  A
Zr932       O938   2.345       .  S
Zr932       O950   2.351       .  S
Zr933       O937   2.350       .  S
Zr933       O948   2.351       .  S
Zr934       O938   2.333       .  S
Zr934       O948   2.344       .  S
Zr935       O937   2.338       .  S
Zr935       O950   2.336       .  S
Zr936       O937   2.329       .  S
Zr936       O938   2.340       .  S
Zr936       O950   2.337       .  S
Zr936       O948   2.337       .  S
C939       C1545   1.497       .  S
C940       C1741   1.495       .  S
C941       C1468   1.496       .  S
C942       C1489   1.491       .  S
C943       C1685   1.499       .  S
C944       C1713   1.513       .  S
C945       C1657   1.486       .  S
C946       C1629   1.483       .  S
H947        O948   0.971       .  S
H949        O950   0.970       .  S
N951        C956   1.350       .  A
N951        H983   1.035       .  S
N952       C2751   1.350   1_455  A
N952        C960   1.348       .  A
N953        C958   1.350       .  A
N953        H984   1.036       .  S
N954       C2753   1.348   1_455  A
N954        C962   1.349       .  A
C955        C963   1.386       .  A
C955        C971   1.412       .  A
C956        C972   1.413       .  A
C956        C964   1.388       .  A
C957        C965   1.389       .  A
C957        C974   1.413       .  A
C958        C973   1.408       .  A
C958        C966   1.386       .  A
C959       N2744   1.350       .  A
C959        C971   1.411       .  A
C959        C967   1.386       .  A
C960        C974   1.410       .  A
C960        C968   1.387       .  A
C961       N2746   1.348       .  A
C961        C969   1.388       .  A
C961        C972   1.410       .  A
C962        C970   1.385       .  A
C962        C973   1.407       .  A
C963        H975   1.083       .  S
C964        H976   1.081       .  S
C965        H977   1.082       .  S
C966        H978   1.083       .  S
C967       C2760   1.370       .  A
C967        H979   1.082       .  S
C968       C2759   1.370   1_455  A
C968        H980   1.082       .  S
C969       C2762   1.367       .  A
C969        H981   1.082       .  S
C970       C2761   1.367   1_455  A
C970        H982   1.082       .  S
C971       C1664   1.491       .  S
C972       C1580   1.482       .  S
C973       C1608   1.484       .  S
C974       C1636   1.482       .  S
O985      Zr1021   2.480       .  S
O985        C996   1.300       .  A
O986      Zr1020   2.473       .  S
O986        C997   1.299       .  A
O987      Zr2785   2.406   1_455  S
O987        C998   1.285       .  A
O988       Zr993   2.414   1_556  S
O988        C999   1.285       .  A
O989      Zr1023   2.434       .  S
O989        C999   1.290       .  A
O990      Zr1022   2.450       .  S
O990        C998   1.294       .  A
O991       Zr993   2.421       .  S
O991        C997   1.289       .  A
O992       Zr993   2.419   1_556  S
O992        C996   1.287       .  A
Zr993      O2779   2.406       .  S
Zr993       O994   2.333       .  S
Zr993      O2787   2.334   1_554  S
Zr993      O1003   2.331   1_554  S
Zr993      O2793   2.334       .  S
O994      Zr1020   2.346       .  S
O994      Zr1023   2.336   1_554  S
O995      Zr2785   2.334   1_456  S
O995      Zr2813   2.350   1_455  S
O995      Zr1022   2.338   1_556  S
C996       C1433   1.517       .  S
C997       C1188   1.508       .  S
C998       C1237   1.477       .  S
C999       C1265   1.467       .  S
H1000      O1001   0.972       .  S
O1001     Zr2785   2.334   1_455  S
O1001     Zr2812   2.351   1_455  S
O1001     Zr1022   2.338       .  S
H1002      O1003   0.971       .  S
O1003     Zr1021   2.349       .  S
O1003     Zr1023   2.342       .  S
O1004      C1027   1.299       .  A
O1005      C1028   1.298       .  A
O1006     Zr1022   2.435       .  S
O1006      C1029   1.291       .  A
O1007     Zr1023   2.444   1_554  S
O1007      C1030   1.293       .  A
O1008     Zr1023   2.431       .  S
O1009     Zr1022   2.430   1_546  S
O1010     Zr2816   2.439   1_454  S
O1010      C1033   1.292       .  A
O1011     Zr1024   2.446       .  S
O1011      C1034   1.293       .  A
O1012      C1033   1.292       .  A
O1013      C1034   1.291       .  A
O1014     Zr2812   2.478   1_455  S
O1014      C1029   1.299       .  A
O1015     Zr1917   2.485   1_455  S
O1015      C1032   1.301       .  A
O1016      C1031   1.301       .  A
O1017     Zr1020   2.461       .  S
O1017      C1030   1.297       .  A
O1018     Zr1024   2.447   1_554  S
O1018      C1027   1.294       .  A
O1019     Zr1024   2.441       .  S
O1019      C1028   1.292       .  A
Zr1020     O2806   2.478       .  S
Zr1020     O2793   2.351       .  S
Zr1020     O1922   2.350   1_565  S
Zr1021     O1911   2.485       .  S
Zr1021     O2787   2.350       .  S
Zr1021     O1932   2.362   1_565  S
Zr1024     O2802   2.439   1_556  S
Zr1024     O1025   2.343       .  S
Zr1024     O2818   2.341   1_556  S
Zr1024     O1038   2.342   1_556  S
Zr1024     O2828   2.345       .  S
O1026     Zr1916   2.350   1_455  S
O1026     Zr2816   2.341   1_454  S
C1027      C1216   1.514       .  S
C1028      C1405   1.489       .  S
C1029      C1125   1.491       .  S
C1030      C1160   1.509       .  S
C1033      C1321   1.497       .  S
C1034      C1300   1.502       .  S
H1035      O1036   0.965       .  S
O1036     Zr1917   2.362   1_455  S
O1036     Zr2816   2.345   1_455  S
H1037      O1038   0.969       .  S
N1039      C1044   1.351   1_554  A
N1039      C1043   1.352   1_554  A
N1039      H1071   1.038       .  S
N1040      C1047   1.349       .  A
N1040      C1048   1.349       .  A
N1041      C1046   1.351       .  A
N1041      C1045   1.353       .  A
N1041      H1072   1.035       .  S
N1042      C1049   1.352       .  A
N1042      C1050   1.351       .  A
C1043      C1051   1.388       .  A
C1043      C1059   1.415   1_556  A
C1044      C1060   1.410       .  A
C1044      C1052   1.385       .  A
C1045      C1053   1.388       .  A
C1045      C1062   1.417       .  A
C1046      C1061   1.415       .  A
C1046      C1054   1.388       .  A
C1047      C1059   1.415       .  A
C1047      C1055   1.388       .  A
C1048      C1062   1.410       .  A
C1048      C1056   1.385       .  A
C1049      C1057   1.385       .  A
C1049      C1060   1.413   1_554  A
C1050      C1058   1.387       .  A
C1050      C1061   1.415       .  A
C1051      C1052   1.373       .  A
C1051      H1063   1.082       .  S
C1052      H1064   1.082       .  S
C1053      C1054   1.370       .  A
C1053      H1065   1.082       .  S
C1054      H1066   1.082       .  S
C1055      C1056   1.372       .  A
C1055      H1067   1.082       .  S
C1056      H1068   1.081       .  S
C1057      C1058   1.375       .  A
C1057      H1069   1.082       .  S
C1058      H1070   1.082       .  S
C1059      C1272   1.497   1_554  S
C1060      C1293   1.494       .  S
C1061      C1328   1.489       .  S
C1062      C1244   1.492       .  S
C1073      C1074   1.551       .  S
C1073      C2871   1.535       .  S
C1073      C1077   1.538       .  S
C1073      C1692   1.567       .  S
C1074      H1081   1.079       .  S
C1074      C2867   1.369       .  D
C1075      C1076   1.543       .  S
C1075      C2866   1.369       .  D
C1075      C1209   1.517       .  S
C1076      C1080   1.555       .  S
C1076      C1078   1.551       .  S
C1076      H1082   1.101       .  S
C1077      H1083   1.085       .  S
C1077      C2870   1.375       .  D
C1078      C2869   1.375       .  D
C1078      C1181   1.525       .  S
C1079      C2865   1.535       .  S
C1079      H1084   1.086       .  S
C1079      C1080   1.362       .  D
C1080      C1720   1.494       .  S
C1085      C1086   1.542       .  S
C1085      C1091   1.548       .  S
C1085      C1132   1.567   1_565  S
C1086      H1093   1.084       .  S
C1086      C1087   1.367       .  D
C1087      C1088   1.552       .  S
C1087      C1748   1.511       .  S
C1088      C1092   1.545       .  S
C1088      H1094   1.110       .  S
C1089      H1095   1.086       .  S
C1089      C1090   1.369       .  D
C1090      C1776   1.510       .  S
C1091      H1096   1.083       .  S
C1091      C1092   1.369       .  D
C1092      C1153   1.502       .  S
C1097      C1098   1.541       .  S
C1097      C2895   1.549       .  S
C1097      C1101   1.531       .  S
C1097      C1496   1.565       .  S
C1098      H1105   1.084       .  S
C1098      C2891   1.366       .  D
C1099      C1100   1.550       .  S
C1099      C2890   1.366       .  D
C1099      C1440   1.503       .  S
C1100      C1104   1.553       .  S
C1100      C1102   1.555       .  S
C1100      H1106   1.109       .  S
C1101      H1107   1.086       .  S
C1101      C2894   1.367       .  D
C1102      C2893   1.367       .  D
C1102      C1412   1.513       .  S
C1103      C2889   1.549       .  S
C1103      H1108   1.083       .  S
C1103      C1104   1.372       .  D
C1104      C1461   1.518       .  S
C1109      C1115   1.535       .  S
C1109      C1113   1.545       .  S
C1109      C1377   1.564       .  S
C1110      H1117   1.081       .  S
C1110      C1111   1.368       .  D
C1111      C1524   1.510       .  S
C1112      C1116   1.548       .  S
C1112      C1114   1.545       .  S
C1112      H1118   1.108       .  S
C1113      H1119   1.084       .  S
C1113      C1114   1.366       .  D
C1114      C1552   1.499       .  S
C1115      H1120   1.086       .  S
C1115      C1116   1.372       .  D
C1116      C1349   1.507   1_565  S
C1121      C1122   1.414       .  A
C1121      C1126   1.416       .  A
C1121      C1139   1.451       .  S
C1122      C1127   1.511       .  S
C1123      C1124   1.415       .  A
C1123      C1128   1.450       .  S
C1124      C1140   1.451       .  S
C1125      C1126   1.414       .  A
C1126      C1129   1.449       .  S
C1127      C1130   1.408   1_565  A
C1127      C1134   1.409       .  A
C1128      N1145   1.157       .  T
C1129      N1147   1.157       .  T
C1130      C1131   1.415       .  A
C1130      C1135   1.453       .  S
C1131      C1132   1.427       .  A
C1131      C1137   1.447       .  S
C1132      C1133   1.431   1_545  A
C1133      C1134   1.419       .  A
C1133      C1136   1.451       .  S
C1134      C1138   1.451       .  S
C1135      N1142   1.157       .  T
C1136      N1143   1.157       .  T
C1137      N1141   1.156       .  T
C1138      N1144   1.157       .  T
C1139      N1148   1.157       .  T
C1140      N1146   1.157       .  T
C1149      C1154   1.412       .  A
C1149      C1167   1.451       .  S
C1150      C1155   1.503       .  S
C1150      C1151   1.410       .  A
C1151      C1152   1.416       .  A
C1151      C1156   1.451       .  S
C1152      C1153   1.416       .  A
C1152      C1168   1.447       .  S
C1154      C1157   1.450       .  S
C1155      C1162   1.407       .  A
C1156      N1173   1.157       .  T
C1157      N1175   1.157       .  T
C1158      C1159   1.416       .  A
C1158      C1163   1.451       .  S
C1159      C1165   1.451       .  S
C1160      C1161   1.425       .  A
C1161      C1162   1.414       .  A
C1161      C1164   1.450       .  S
C1162      C1166   1.452       .  S
C1163      N1170   1.157       .  T
C1164      N1171   1.157       .  T
C1165      N1169   1.157       .  T
C1166      N1172   1.157       .  T
C1167      N1176   1.157       .  T
C1168      N1174   1.157       .  T
C1177      C1178   1.407       .  A
C1177      C1182   1.418       .  A
C1177      C1195   1.453       .  S
C1178      C1183   1.503       .  S
C1178      C2971   1.406       .  A
C1179      C2970   1.406   1_455  A
C1179      C1180   1.412       .  A
C1179      C1184   1.453       .  S
C1180      C2973   1.427   1_455  A
C1180      C1196   1.451       .  S
C1181      C2972   1.427       .  A
C1181      C1182   1.429       .  A
C1182      C1185   1.447       .  S
C1183      C1186   1.411       .  A
C1183      C2982   1.406       .  A
C1184      N1201   1.157       .  T
C1185      N1203   1.158       .  T
C1186      C1187   1.416       .  A
C1186      C1191   1.450       .  S
C1187      C1188   1.421       .  A
C1187      C1193   1.451       .  S
C1188      C2981   1.428       .  A
C1189      C2980   1.428       .  A
C1189      C1190   1.412       .  A
C1189      C1192   1.451       .  S
C1190      C2975   1.406       .  A
C1190      C1194   1.453       .  S
C1191      N1198   1.157       .  T
C1192      N1199   1.157       .  T
C1193      N1197   1.158       .  T
C1194      N1200   1.157       .  T
C1195      N1204   1.157       .  T
C1196      N1202   1.157       .  T
C1205      C2998   1.409   1_455  A
C1205      C1210   1.415       .  A
C1205      C1223   1.451       .  S
C1206      C1211   1.510       .  S
C1206      C2997   1.409       .  A
C1206      C1207   1.411       .  A
C1207      C1208   1.419       .  A
C1207      C1212   1.450       .  S
C1208      C1209   1.420       .  A
C1208      C1224   1.446       .  S
C1209      C3002   1.421       .  A
C1210      C3001   1.421       .  A
C1210      C1213   1.449       .  S
C1211      C1214   1.410       .  A
C1211      C1218   1.409       .  A
C1212      N1229   1.157       .  T
C1213      N1231   1.157       .  T
C1214      C1215   1.419       .  A
C1214      C1219   1.450       .  S
C1215      C1216   1.422       .  A
C1215      C1221   1.449       .  S
C1216      C1217   1.425       .  A
C1217      C1218   1.416       .  A
C1217      C3012   1.451       .  S
C1218      C3014   1.451       .  S
C1219      N1226   1.157       .  T
C1220      C3009   1.451       .  S
C1220      N1227   1.157       .  T
C1221      N1225   1.157       .  T
C1222      C3010   1.451       .  S
C1222      N1228   1.157       .  T
C1223      N1232   1.157       .  T
C1224      N1230   1.157       .  T
C1233      C1234   1.414   1_556  A
C1233      C1238   1.402       .  A
C1233      C1251   1.451       .  S
C1234      C1239   1.495       .  S
C1234      C1235   1.414       .  A
C1235      C1236   1.408       .  A
C1235      C1240   1.452       .  S
C1236      C1237   1.414       .  A
C1236      C1252   1.450       .  S
C1237      C1238   1.406   1_554  A
C1238      C1241   1.449       .  S
C1239      C1242   1.416       .  A
C1239      C1246   1.413   1_554  A
C1240      N1257   1.157       .  T
C1241      N1259   1.157       .  T
C1242      C1243   1.410       .  A
C1242      C1247   1.452       .  S
C1243      C1244   1.411       .  A
C1243      C1249   1.450       .  S
C1244      C1245   1.413   1_554  A
C1245      C1246   1.404       .  A
C1245      C1248   1.452       .  S
C1246      C1250   1.452       .  S
C1247      N1254   1.157       .  T
C1248      N1255   1.157       .  T
C1249      N1253   1.157       .  T
C1250      N1256   1.157       .  T
C1251      N1260   1.157       .  T
C1252      N1258   1.157       .  T
C1261      C1262   1.414       .  A
C1261      C1266   1.408       .  A
C1261      C1279   1.450       .  S
C1262      C1267   1.492       .  S
C1262      C1263   1.413   1_556  A
C1263      C1264   1.404       .  A
C1263      C1268   1.451       .  S
C1264      C1265   1.407   1_554  A
C1264      C1280   1.452       .  S
C1265      C1266   1.409       .  A
C1266      C1269   1.452       .  S
C1267      C1270   1.412   1_556  A
C1267      C1274   1.412       .  A
C1268      N1285   1.157       .  T
C1269      N1287   1.157       .  T
C1270      C1271   1.405       .  A
C1270      C1275   1.453       .  S
C1271      C1272   1.415   1_554  A
C1271      C1277   1.452       .  S
C1272      C1273   1.416       .  A
C1273      C1274   1.408       .  A
C1273      C1276   1.452       .  S
C1274      C1278   1.451       .  S
C1275      N1282   1.157       .  T
C1276      N1283   1.157       .  T
C1277      N1281   1.157       .  T
C1278      N1284   1.157       .  T
C1279      N1288   1.157       .  T
C1280      N1286   1.157       .  T
C1289      C1290   1.412       .  A
C1289      C1294   1.413       .  A
C1289      C1307   1.450       .  S
C1290      C1295   1.496       .  S
C1290      C1291   1.411   1_556  A
C1291      C1292   1.407       .  A
C1291      C1296   1.451       .  S
C1292      C1293   1.412   1_554  A
C1292      C1308   1.451       .  S
C1293      C1294   1.412       .  A
C1294      C1297   1.449       .  S
C1295      C1298   1.408       .  A
C1295      C1302   1.407       .  A
C1296      N1313   1.157       .  T
C1297      N1315   1.157       .  T
C1298      C1299   1.415       .  A
C1298      C1303   1.451       .  S
C1299      C1300   1.423       .  A
C1299      C1305   1.451       .  S
C1300      C1301   1.423   1_556  A
C1301      C1302   1.409   1_554  A
C1301      C1304   1.452       .  S
C1302      C1306   1.453   1_556  S
C1303      N1310   1.157       .  T
C1304      N1311   1.157       .  T
C1305      N1309   1.157       .  T
C1306      N1312   1.157       .  T
C1307      N1316   1.157       .  T
C1308      N1314   1.157       .  T
C1317      C1318   1.407       .  A
C1317      C1322   1.410       .  A
C1317      C1335   1.451       .  S
C1318      C1323   1.490       .  S
C1318      C1319   1.406       .  A
C1319      C1320   1.406       .  A
C1319      C1324   1.453   1_554  S
C1320      C1321   1.419       .  A
C1320      C1336   1.445   1_554  S
C1321      C1322   1.421       .  A
C1322      C1325   1.449       .  S
C1323      C1326   1.411       .  A
C1323      C1330   1.412   1_554  A
C1324      N1341   1.157       .  T
C1325      N1343   1.156       .  T
C1326      C1327   1.409       .  A
C1326      C1331   1.450       .  S
C1327      C1328   1.411       .  A
C1327      C1333   1.450       .  S
C1328      C1329   1.410   1_554  A
C1329      C1330   1.405       .  A
C1329      C1332   1.451       .  S
C1330      C1334   1.452       .  S
C1331      N1338   1.157       .  T
C1332      N1339   1.157       .  T
C1333      N1337   1.157       .  T
C1334      N1340   1.157       .  T
C1335      N1344   1.157       .  T
C1336      N1342   1.155       .  T
C1345      C1350   1.412       .  A
C1345      C1363   1.451       .  S
C1346      C1351   1.503       .  S
C1346      C1347   1.410       .  A
C1347      C1348   1.416       .  A
C1347      C1352   1.450       .  S
C1348      C1349   1.419   1_565  A
C1348      C1364   1.447       .  S
C1350      C1353   1.450       .  S
C1351      C1354   1.407       .  A
C1352      N1369   1.157       .  T
C1353      N1371   1.157       .  T
C1354      C1355   1.412       .  A
C1354      C1359   1.454       .  S
C1355      C1356   1.427       .  A
C1355      C1361   1.451       .  S
C1357      C1358   1.419       .  A
C1357      C1360   1.450       .  S
C1358      C1362   1.450       .  S
C1359      N1366   1.157       .  T
C1360      N1367   1.157       .  T
C1361      N1365   1.157       .  T
C1362      N1368   1.157       .  T
C1363      N1372   1.157       .  T
C1364      N1370   1.157       .  T
C1373      C1374   1.410       .  A
C1373      C1378   1.416       .  A
C1373      C1391   1.452       .  S
C1374      C1379   1.509   1_565  S
C1375      C1376   1.416       .  A
C1375      C1380   1.452       .  S
C1376      C1392   1.450       .  S
C1377      C1378   1.425       .  A
C1378      C1381   1.449       .  S
C1379      C1386   1.410       .  A
C1380      N1397   1.157       .  T
C1381      N1399   1.157       .  T
C1382      C1383   1.412       .  A
C1382      C1387   1.454       .  S
C1383      C1389   1.454       .  S
C1384      C1385   1.427   1_565  A
C1385      C1386   1.421       .  A
C1385      C1388   1.450       .  S
C1386      C1390   1.451       .  S
C1387      N1394   1.157       .  T
C1388      N1395   1.158       .  T
C1389      N1393   1.158       .  T
C1390      N1396   1.157       .  T
C1391      N1400   1.157       .  T
C1392      N1398   1.157       .  T
C1401      C3194   1.414   1_455  A
C1401      C1406   1.415       .  A
C1401      C1419   1.450       .  S
C1402      C1407   1.508       .  S
C1402      C3193   1.414       .  A
C1402      C1403   1.414       .  A
C1403      C1404   1.416       .  A
C1403      C1408   1.449       .  S
C1404      C1405   1.413       .  A
C1404      C1420   1.450       .  S
C1405      C3198   1.413       .  A
C1406      C3197   1.413   1_455  A
C1406      C1409   1.452       .  S
C1407      C3202   1.408       .  A
C1407      C1414   1.412       .  A
C1408      N1425   1.157       .  T
C1409      N1427   1.158       .  T
C1410      C3199   1.408   1_455  A
C1410      C1411   1.414       .  A
C1410      C1415   1.451       .  S
C1411      C3204   1.422       .  A
C1411      C1417   1.449       .  S
C1412      C3203   1.422       .  A
C1412      C1413   1.418       .  A
C1413      C1414   1.419       .  A
C1413      C1416   1.448       .  S
C1414      C1418   1.450       .  S
C1415      N1422   1.157       .  T
C1416      N1423   1.157       .  T
C1417      N1421   1.156       .  T
C1418      N1424   1.157       .  T
C1419      N1428   1.157       .  T
C1420      N1426   1.157       .  T
C1429      C3222   1.411   1_455  A
C1429      C1434   1.419       .  A
C1429      C1447   1.450       .  S
C1430      C1435   1.505       .  S
C1430      C3221   1.411       .  A
C1430      C1431   1.405       .  A
C1431      C1432   1.412       .  A
C1431      C1436   1.454       .  S
C1432      C1433   1.432       .  A
C1432      C1448   1.453       .  S
C1433      C3226   1.424       .  A
C1434      C3225   1.424   1_455  A
C1434      C1437   1.450       .  S
C1435      C3230   1.411       .  A
C1435      C1442   1.412       .  A
C1436      N1453   1.157       .  T
C1437      N1455   1.157       .  T
C1438      C3227   1.411   1_455  A
C1438      C1439   1.412       .  A
C1438      C1443   1.451       .  S
C1439      C3232   1.416       .  A
C1439      C1445   1.450       .  S
C1440      C3231   1.416       .  A
C1440      C1441   1.414       .  A
C1441      C1442   1.417       .  A
C1441      C1444   1.447       .  S
C1442      C1446   1.450       .  S
C1443      N1450   1.157       .  T
C1444      N1451   1.157       .  T
C1445      N1449   1.157       .  T
C1446      N1452   1.157       .  T
C1447      N1456   1.157       .  T
C1448      N1454   1.158       .  T
C1457      C1458   1.411       .  A
C1457      C1462   1.418       .  A
C1457      C1475   1.451       .  S
C1458      C1463   1.512       .  S
C1458      C1459   1.411       .  A
C1459      C1460   1.418       .  A
C1459      C1464   1.452       .  S
C1460      C1461   1.425       .  A
C1460      C1476   1.451       .  S
C1461      C1462   1.420       .  A
C1462      C1465   1.448       .  S
C1463      C1466   1.415       .  A
C1463      C1470   1.413       .  A
C1464      N1481   1.157       .  T
C1465      N1483   1.157       .  T
C1466      C1467   1.417       .  A
C1466      C1471   1.449       .  S
C1467      C1468   1.414       .  A
C1467      C1473   1.451       .  S
C1468      C1469   1.416       .  A
C1469      C1470   1.414       .  A
C1469      C1472   1.450       .  S
C1470      C1474   1.451       .  S
C1471      N1478   1.157       .  T
C1472      N1479   1.157       .  T
C1473      N1477   1.157       .  T
C1474      N1480   1.157       .  T
C1475      N1484   1.157       .  T
C1476      N1482   1.157       .  T
C1485      C1486   1.410       .  A
C1485      C1490   1.410       .  A
C1485      C1503   1.450       .  S
C1486      C1491   1.501       .  S
C1486      C1487   1.412       .  A
C1487      C1488   1.415       .  A
C1487      C1492   1.450       .  S
C1488      C1489   1.416       .  A
C1488      C1504   1.450       .  S
C1489      C1490   1.415       .  A
C1490      C1493   1.450       .  S
C1491      C1494   1.405       .  A
C1491      C1498   1.403       .  A
C1492      N1509   1.157       .  T
C1493      N1511   1.157       .  T
C1494      C1495   1.415       .  A
C1494      C1499   1.452       .  S
C1495      C1496   1.430       .  A
C1495      C1501   1.449       .  S
C1496      C1497   1.434       .  A
C1497      C1498   1.416       .  A
C1497      C1500   1.447       .  S
C1498      C1502   1.454       .  S
C1499      N1506   1.157       .  T
C1500      N1507   1.156       .  T
C1501      N1505   1.157       .  T
C1502      N1508   1.157       .  T
C1503      N1512   1.157       .  T
C1504      N1510   1.157       .  T
C1513      C1514   1.412       .  A
C1513      C1518   1.417       .  A
C1513      C1531   1.451       .  S
C1514      C1519   1.504       .  S
C1514      C1515   1.408       .  A
C1515      C1516   1.407       .  A
C1515      C1520   1.455       .  S
C1516      C1517   1.426       .  A
C1516      C1532   1.452       .  S
C1517      C1518   1.424       .  A
C1518      C1521   1.451       .  S
C1519      C1522   1.410       .  A
C1519      C1526   1.411       .  A
C1520      N1537   1.157       .  T
C1521      N1539   1.158       .  T
C1522      C1523   1.408       .  A
C1522      C1527   1.453       .  S
C1523      C1524   1.422       .  A
C1523      C1529   1.452       .  S
C1524      C1525   1.422       .  A
C1525      C1526   1.416       .  A
C1525      C1528   1.448       .  S
C1526      C1530   1.452       .  S
C1527      N1534   1.157       .  T
C1528      N1535   1.157       .  T
C1529      N1533   1.157       .  T
C1530      N1536   1.157       .  T
C1531      N1540   1.157       .  T
C1532      N1538   1.157       .  T
C1541      C1542   1.412       .  A
C1541      C1546   1.414       .  A
C1541      C1559   1.451       .  S
C1542      C1547   1.511       .  S
C1542      C1543   1.416       .  A
C1543      C1544   1.417       .  A
C1543      C1548   1.450       .  S
C1544      C1545   1.413       .  A
C1544      C1560   1.449       .  S
C1545      C1546   1.417       .  A
C1546      C1549   1.449       .  S
C1547      C1550   1.417       .  A
C1547      C1554   1.413       .  A
C1548      N1565   1.157       .  T
C1549      N1567   1.156       .  T
C1550      C1551   1.417       .  A
C1550      C1555   1.451       .  S
C1551      C1552   1.412       .  A
C1551      C1557   1.449       .  S
C1552      C1553   1.415       .  A
C1553      C1554   1.414       .  A
C1553      C1556   1.451       .  S
C1554      C1558   1.450       .  S
C1555      N1562   1.157       .  T
C1556      N1563   1.157       .  T
C1557      N1561   1.157       .  T
C1558      N1564   1.157       .  T
C1559      N1568   1.157       .  T
C1560      N1566   1.157       .  T
C1569      C1570   1.406       .  A
C1569      C1574   1.407       .  A
C1569      C1587   1.453       .  S
C1570      C1575   1.482       .  S
C1570      C1571   1.404       .  A
C1571      C1572   1.403       .  A
C1571      C1576   1.453       .  S
C1572      C1573   1.423       .  A
C1572      C1588   1.452       .  S
C1573      C1574   1.424       .  A
C1574      C1577   1.452       .  S
C1575      C1578   1.411       .  A
C1575      C1582   1.408       .  A
C1576      N1593   1.157       .  T
C1577      N1595   1.157       .  T
C1578      C1579   1.404       .  A
C1578      C1583   1.451       .  S
C1579      C1580   1.409       .  A
C1579      C1585   1.451       .  S
C1580      C1581   1.413       .  A
C1581      C1582   1.402       .  A
C1581      C1584   1.451       .  S
C1582      C1586   1.452       .  S
C1583      N1590   1.157       .  T
C1584      N1591   1.157       .  T
C1585      N1589   1.157       .  T
C1586      N1592   1.157       .  T
C1587      N1596   1.157       .  T
C1588      N1594   1.157       .  T
C1597      C1598   1.406       .  A
C1597      C1602   1.404       .  A
C1597      C1615   1.453       .  S
C1598      C1603   1.483       .  S
C1598      C1599   1.408       .  A
C1599      C1600   1.406       .  A
C1599      C1604   1.452       .  S
C1600      C1601   1.418       .  A
C1600      C1616   1.452       .  S
C1601      C1602   1.419       .  A
C1602      C1605   1.450       .  S
C1603      C1606   1.410       .  A
C1603      C1610   1.410       .  A
C1604      N1621   1.157       .  T
C1605      N1623   1.156       .  T
C1606      C1607   1.402       .  A
C1606      C1611   1.452       .  S
C1607      C1608   1.410       .  A
C1607      C1613   1.451       .  S
C1608      C1609   1.412       .  A
C1609      C1610   1.405       .  A
C1609      C1612   1.451       .  S
C1610      C1614   1.451       .  S
C1611      N1618   1.157       .  T
C1612      N1619   1.157       .  T
C1613      N1617   1.157       .  T
C1614      N1620   1.157       .  T
C1615      N1624   1.157       .  T
C1616      N1622   1.157       .  T
C1625      C1626   1.407       .  A
C1625      C1630   1.404       .  A
C1625      C1643   1.453       .  S
C1626      C1631   1.481       .  S
C1626      C1627   1.407       .  A
C1627      C1628   1.403       .  A
C1627      C1632   1.453       .  S
C1628      C1629   1.420       .  A
C1628      C1644   1.453       .  S
C1629      C1630   1.420       .  A
C1630      C1633   1.452       .  S
C1631      C1634   1.411       .  A
C1631      C1638   1.410       .  A
C1632      N1649   1.157       .  T
C1633      N1651   1.157       .  T
C1634      C1635   1.403       .  A
C1634      C1639   1.452       .  S
C1635      C1636   1.410       .  A
C1635      C1641   1.451       .  S
C1636      C1637   1.412       .  A
C1637      C1638   1.402       .  A
C1637      C1640   1.452       .  S
C1638      C1642   1.452       .  S
C1639      N1646   1.157       .  T
C1640      N1647   1.157       .  T
C1641      N1645   1.157       .  T
C1642      N1648   1.157       .  T
C1643      N1652   1.157       .  T
C1644      N1650   1.157       .  T
C1653      C1654   1.408       .  A
C1653      C1658   1.407       .  A
C1653      C1671   1.451       .  S
C1654      C1659   1.485       .  S
C1654      C1655   1.406       .  A
C1655      C1656   1.406       .  A
C1655      C1660   1.452       .  S
C1656      C1657   1.420       .  A
C1656      C1672   1.452       .  S
C1657      C1658   1.418       .  A
C1658      C1661   1.452       .  S
C1659      C1662   1.410       .  A
C1659      C1666   1.408       .  A
C1660      N1677   1.157       .  T
C1661      N1679   1.157       .  T
C1662      C1663   1.407       .  A
C1662      C1667   1.451       .  S
C1663      C1664   1.413       .  A
C1663      C1669   1.450       .  S
C1664      C1665   1.414       .  A
C1665      C1666   1.405       .  A
C1665      C1668   1.451       .  S
C1666      C1670   1.451       .  S
C1667      N1674   1.157       .  T
C1668      N1675   1.157       .  T
C1669      N1673   1.157       .  T
C1670      N1676   1.157       .  T
C1671      N1680   1.157       .  T
C1672      N1678   1.157       .  T
C1681      C1682   1.409       .  A
C1681      C1686   1.412       .  A
C1681      C1699   1.451       .  S
C1682      C1687   1.505       .  S
C1682      C1683   1.412       .  A
C1683      C1684   1.417       .  A
C1683      C1688   1.450       .  S
C1684      C1685   1.416       .  A
C1684      C1700   1.449       .  S
C1685      C1686   1.420       .  A
C1686      C1689   1.451       .  S
C1687      C1690   1.407       .  A
C1687      C1694   1.405       .  A
C1688      N1705   1.157       .  T
C1689      N1707   1.157       .  T
C1690      C1691   1.418       .  A
C1690      C1695   1.451       .  S
C1691      C1692   1.431       .  A
C1691      C1697   1.452       .  S
C1692      C1693   1.430       .  A
C1693      C1694   1.415       .  A
C1693      C1696   1.446       .  S
C1694      C1698   1.453       .  S
C1695      N1702   1.157       .  T
C1696      N1703   1.157       .  T
C1697      N1701   1.157       .  T
C1698      N1704   1.157       .  T
C1699      N1708   1.157       .  T
C1700      N1706   1.157       .  T
C1709      C1710   1.414       .  A
C1709      C1714   1.422       .  A
C1709      C1727   1.450       .  S
C1710      C1715   1.510       .  S
C1710      C1711   1.408       .  A
C1711      C1712   1.411       .  A
C1711      C1716   1.453       .  S
C1712      C1713   1.425       .  A
C1712      C1728   1.450       .  S
C1713      C1714   1.421       .  A
C1714      C1717   1.449       .  S
C1715      C1718   1.416       .  A
C1715      C1722   1.415       .  A
C1716      N1733   1.157       .  T
C1717      N1735   1.157       .  T
C1718      C1719   1.413       .  A
C1718      C1723   1.450       .  S
C1719      C1720   1.411       .  A
C1719      C1725   1.451       .  S
C1720      C1721   1.412       .  A
C1721      C1722   1.415       .  A
C1721      C1724   1.451       .  S
C1722      C1726   1.450       .  S
C1723      N1730   1.157       .  T
C1724      N1731   1.157       .  T
C1725      N1729   1.158       .  T
C1726      N1732   1.157       .  T
C1727      N1736   1.157       .  T
C1728      N1734   1.156       .  T
C1737      C1738   1.415       .  A
C1737      C1742   1.419       .  A
C1737      C1755   1.449       .  S
C1738      C1743   1.508       .  S
C1738      C1739   1.411       .  A
C1739      C1740   1.412       .  A
C1739      C1744   1.451       .  S
C1740      C1741   1.415       .  A
C1740      C1756   1.448       .  S
C1741      C1742   1.414       .  A
C1742      C1745   1.450       .  S
C1743      C1746   1.410       .  A
C1743      C1750   1.412       .  A
C1744      N1761   1.157       .  T
C1745      N1763   1.157       .  T
C1746      C1747   1.415       .  A
C1746      C1751   1.451       .  S
C1747      C1748   1.423       .  A
C1747      C1753   1.452       .  S
C1748      C1749   1.417       .  A
C1749      C1750   1.417       .  A
C1749      C1752   1.448       .  S
C1750      C1754   1.450       .  S
C1751      N1758   1.157       .  T
C1752      N1759   1.157   1_565  T
C1753      N1757   1.157       .  T
C1754      N1760   1.157       .  T
C1755      N1764   1.157       .  T
C1756      N1762   1.156       .  T
C1765      C1766   1.411       .  A
C1765      C1770   1.412       .  A
C1765      C1783   1.452       .  S
C1766      C1771   1.507       .  S
C1766      C1767   1.414       .  A
C1767      C1768   1.415       .  A
C1767      C1772   1.450       .  S
C1768      C1769   1.415       .  A
C1768      C1784   1.451       .  S
C1769      C1770   1.417       .  A
C1770      C1773   1.449       .  S
C1771      C1774   1.411       .  A
C1771      C1778   1.411       .  A
C1772      N1789   1.157       .  T
C1773      N1791   1.156       .  T
C1774      C1775   1.414       .  A
C1774      C1779   1.452       .  S
C1775      C1776   1.419       .  A
C1775      C1781   1.450       .  S
C1776      C1777   1.418       .  A
C1777      C1778   1.416       .  A
C1777      C1780   1.446       .  S
C1778      C1782   1.452       .  S
C1779      N1786   1.157       .  T
C1780      N1787   1.157       .  T
C1781      N1785   1.157       .  T
C1782      N1788   1.157       .  T
C1783      N1792   1.157       .  T
C1784      N1790   1.157       .  T
O1793     Zr1829   2.466       .  S
O1793      C1804   1.298       .  A
O1794     Zr1828   2.462       .  S
O1794      C1805   1.297       .  A
O1795     Zr1801   2.418       .  S
O1795      C1806   1.287       .  A
O1796     Zr1801   2.424       .  S
O1796      C1807   1.288       .  A
O1797     Zr1831   2.422       .  S
O1797      C1807   1.289       .  A
O1798     Zr1830   2.423       .  S
O1798      C1806   1.289       .  A
O1799     Zr1801   2.428       .  S
O1799      C1805   1.290       .  A
O1800     Zr1801   2.435       .  S
O1800      C1804   1.292       .  A
Zr1801     O1802   2.335       .  S
Zr1801     O1803   2.334       .  S
Zr1801     O1811   2.335       .  S
Zr1801     O1809   2.338       .  S
O1802     Zr1828   2.350       .  S
O1802     Zr1831   2.326       .  S
O1803     Zr1829   2.350       .  S
O1803     Zr1830   2.336       .  S
C1804      C2665   1.495       .  S
C1805      C2413   1.509       .  S
C1806      C2469   1.491       .  S
C1807      C2497   1.484       .  S
H1808      O1809   0.971       .  S
O1809     Zr1828   2.350       .  S
O1809     Zr1830   2.332       .  S
H1810      O1811   0.972       .  S
O1811     Zr1829   2.361       .  S
O1811     Zr1831   2.344       .  S
O1812     Zr1828   2.477       .  S
O1812      C1835   1.300       .  A
O1813     Zr1829   2.471       .  S
O1813      C1836   1.298       .  A
O1814     Zr1830   2.440       .  S
O1814      C1837   1.293       .  A
O1815     Zr1831   2.446       .  S
O1815      C1838   1.294       .  A
O1816     Zr1831   2.425       .  S
O1816      C1839   1.290       .  A
O1817     Zr1830   2.428       .  S
O1817      C1840   1.291       .  A
O1818     Zr1832   2.415       .  S
O1818      C1841   1.288       .  A
O1819     Zr1832   2.421       .  S
O1819      C1842   1.288       .  A
O1820     Zr1830   2.428       .  S
O1820      C1841   1.290       .  A
O1821     Zr1831   2.414       .  S
O1821      C1842   1.287       .  A
O1822     Zr1828   2.465       .  S
O1822      C1837   1.297       .  A
O1823     Zr1829   2.489       .  S
O1823      C1840   1.302       .  A
O1824     Zr1829   2.478       .  S
O1824      C1839   1.300       .  A
O1825     Zr1828   2.448       .  S
O1825      C1838   1.294       .  A
O1826     Zr1832   2.431       .  S
O1826      C1835   1.291       .  A
O1827     Zr1832   2.438       .  S
O1827      C1836   1.292       .  A
Zr1828     O1834   2.345       .  S
Zr1828     O1846   2.351       .  S
Zr1829     O1833   2.350       .  S
Zr1829     O1844   2.351       .  S
Zr1830     O1834   2.333       .  S
Zr1830     O1844   2.344       .  S
Zr1831     O1833   2.338       .  S
Zr1831     O1846   2.336       .  S
Zr1832     O1833   2.329       .  S
Zr1832     O1834   2.340       .  S
Zr1832     O1846   2.337       .  S
Zr1832     O1844   2.337       .  S
C1835      C2441   1.497       .  S
C1836      C2637   1.495       .  S
C1837      C2364   1.496       .  S
C1838      C2385   1.491       .  S
C1839      C2581   1.499       .  S
C1840      C2609   1.513       .  S
C1841      C2553   1.486       .  S
C1842      C2525   1.483       .  S
H1843      O1844   0.971       .  S
H1845      O1846   0.970       .  S
N1847      C1852   1.350   1_565  A
N1847      C2747   1.351       .  A
N1847      H1879   1.035       .  S
N1848      C1856   1.348       .  A
N1849      C1854   1.350   1_565  A
N1849      C2749   1.350       .  A
N1849      H1880   1.036       .  S
N1850      C1858   1.349       .  A
C1851      N2743   1.351       .  A
C1851      C1859   1.386       .  A
C1851      C1867   1.412       .  A
C1852      C1868   1.413       .  A
C1852      C1860   1.388       .  A
C1853      N2745   1.350       .  A
C1853      C1861   1.389       .  A
C1853      C1870   1.413       .  A
C1854      C1869   1.408       .  A
C1854      C1862   1.386       .  A
C1855      C1867   1.411       .  A
C1855      C1863   1.386       .  A
C1856      C1870   1.410       .  A
C1856      C1864   1.387       .  A
C1857      C1865   1.388       .  A
C1857      C1868   1.410       .  A
C1858      C1866   1.385       .  A
C1858      C1869   1.407       .  A
C1859      C2756   1.372       .  A
C1859      H1871   1.083       .  S
C1860      C2755   1.372   1_545  A
C1860      H1872   1.081       .  S
C1861      C2758   1.368       .  A
C1861      H1873   1.082       .  S
C1862      C2757   1.368   1_545  A
C1862      H1874   1.083       .  S
C1863      H1875   1.082       .  S
C1864      H1876   1.082       .  S
C1865      H1877   1.082       .  S
C1866      H1878   1.082       .  S
C1867      C2560   1.491       .  S
C1868      C2476   1.482       .  S
C1869      C2504   1.484       .  S
C1870      C2532   1.482       .  S
O1881     Zr1917   2.480       .  S
O1881      C1892   1.300       .  A
O1882     Zr1916   2.473       .  S
O1882      C1893   1.299       .  A
O1883      C1894   1.285       .  A
O1884     Zr1889   2.414   1_556  S
O1884      C1895   1.285       .  A
O1885     Zr1919   2.434       .  S
O1885      C1895   1.290       .  A
O1886     Zr1918   2.450       .  S
O1886      C1894   1.294       .  A
O1887     Zr1889   2.421       .  S
O1887      C1893   1.289       .  A
O1888     Zr1889   2.419   1_556  S
O1888      C1892   1.287       .  A
Zr1889     O1890   2.333       .  S
Zr1889     O1899   2.331   1_554  S
O1890     Zr1916   2.346       .  S
O1890     Zr1919   2.336   1_554  S
O1891     Zr1918   2.338   1_556  S
C1892      C2329   1.517       .  S
C1893      C2084   1.508       .  S
C1894      C2133   1.477       .  S
C1895      C2161   1.467       .  S
H1896      O1897   0.972       .  S
O1897     Zr1918   2.338       .  S
H1898      O1899   0.971       .  S
O1899     Zr1917   2.349       .  S
O1899     Zr1919   2.342       .  S
O1900     Zr2812   2.473   1_545  S
O1900      C1923   1.299       .  A
O1901     Zr2813   2.466   1_545  S
O1901      C1924   1.298       .  A
O1902     Zr1918   2.435       .  S
O1902      C1925   1.291       .  A
O1903     Zr1919   2.444   1_554  S
O1903      C1926   1.293       .  A
O1904     Zr1919   2.431       .  S
O1904      C2823   1.291       .  A
O1905     Zr1918   2.430   1_556  S
O1905      C2824   1.290       .  A
O1906      C1929   1.292       .  A
O1907     Zr1920   2.446       .  S
O1907      C1930   1.293       .  A
O1908     Zr2814   2.439   1_545  S
O1908      C1929   1.292       .  A
O1909     Zr2815   2.435   1_545  S
O1909      C1930   1.291       .  A
O1910      C1925   1.299       .  A
O1911      C1928   1.301       .  A
O1912     Zr2813   2.481       .  S
O1912      C1927   1.301       .  A
O1913     Zr1916   2.461       .  S
O1913      C1926   1.297       .  A
O1914     Zr1920   2.447   1_554  S
O1914      C1923   1.294       .  A
O1915     Zr1920   2.441       .  S
O1915      C1924   1.292       .  A
Zr1916     O2796   2.473       .  S
Zr1916     O2830   2.358       .  S
Zr1917     O2797   2.466       .  S
Zr1917     O2808   2.481       .  S
Zr1917     O2817   2.358       .  S
Zr1918     O2804   2.439       .  S
Zr1918     O2818   2.340       .  S
Zr1918     O2828   2.344   1_554  S
Zr1919     O2805   2.435       .  S
Zr1919     O2817   2.339       .  S
Zr1919     O2830   2.339   1_556  S
Zr1920     O1921   2.343       .  S
Zr1920     O1934   2.342   1_556  S
O1921     Zr2813   2.358   1_545  S
O1921     Zr2815   2.339   1_545  S
O1922     Zr2814   2.340   1_545  S
C1923      C2112   1.514       .  S
C1924      C2301   1.489       .  S
C1925      C2021   1.491       .  S
C1926      C2056   1.509       .  S
C1927      O2800   1.291       .  A
C1927      C3148   1.512       .  S
C1928      O2801   1.290   1_565  A
C1928      C3176   1.523       .  S
C1929      C2217   1.497       .  S
C1930      C2196   1.502       .  S
H1931      O1932   0.965       .  S
O1932     Zr2814   2.344   1_546  S
H1933      O1934   0.969       .  S
O1934     Zr2812   2.358   1_545  S
O1934     Zr2815   2.339   1_544  S
N1935      C1940   1.351   1_554  A
N1935      C1939   1.352   1_554  A
N1935      H1967   1.038       .  S
N1936      C1943   1.349       .  A
N1936      C1944   1.349       .  A
N1937      C1942   1.351       .  A
N1937      C1941   1.353       .  A
N1937      H1968   1.035       .  S
N1938      C1945   1.352       .  A
N1938      C1946   1.351       .  A
C1939      C1947   1.388       .  A
C1939      C1955   1.415   1_556  A
C1940      C1956   1.410       .  A
C1940      C1948   1.385       .  A
C1941      C1949   1.388       .  A
C1941      C1958   1.417       .  A
C1942      C1957   1.415       .  A
C1942      C1950   1.388       .  A
C1943      C1955   1.415       .  A
C1943      C1951   1.388       .  A
C1944      C1958   1.410       .  A
C1944      C1952   1.385       .  A
C1945      C1953   1.385       .  A
C1945      C1956   1.413   1_554  A
C1946      C1954   1.387       .  A
C1946      C1957   1.415       .  A
C1947      C1948   1.373       .  A
C1947      H1959   1.082       .  S
C1948      H1960   1.082       .  S
C1949      C1950   1.370       .  A
C1949      H1961   1.082       .  S
C1950      H1962   1.082       .  S
C1951      C1952   1.372       .  A
C1951      H1963   1.082       .  S
C1952      H1964   1.081       .  S
C1953      C1954   1.375       .  A
C1953      H1965   1.082       .  S
C1954      H1966   1.082       .  S
C1955      C2168   1.497   1_554  S
C1956      C2189   1.494       .  S
C1957      C2224   1.489       .  S
C1958      C2140   1.492       .  S
C1969      C1970   1.551       .  S
C1969      C1973   1.538       .  S
C1969      C2588   1.567       .  S
C1970      H1977   1.079       .  S
C1971      C1972   1.543   1_455  S
C1971      C2105   1.517       .  S
C1972      C1976   1.555       .  S
C1972      C1974   1.551   1_655  S
C1972      H1978   1.101       .  S
C1973      H1979   1.085       .  S
C1974      C2077   1.525   1_455  S
C1975      H1980   1.086       .  S
C1975      C1976   1.362   1_455  D
C1976      C2616   1.494       .  S
C1981      C1982   1.542       .  S
C1981      C1987   1.548       .  S
C1981      C2881   1.534       .  S
C1981      C2028   1.567       .  S
C1982      H1989   1.084       .  S
C1982      C1983   1.367       .  D
C1983      C1984   1.552       .  S
C1983      C2644   1.511       .  S
C1984      C1988   1.545       .  S
C1984      C2882   1.551       .  S
C1984      H1990   1.110       .  S
C1985      C2877   1.534   1_545  S
C1985      H1991   1.086       .  S
C1985      C1986   1.369       .  D
C1986      C2880   1.551   1_545  S
C1986      C2672   1.510       .  S
C1987      H1992   1.083       .  S
C1987      C1988   1.369       .  D
C1988      C2049   1.502       .  S
C1993      C1994   1.541       .  S
C1993      C1997   1.531       .  S
C1993      C2392   1.565       .  S
C1994      H2001   1.084       .  S
C1995      C1996   1.550   1_455  S
C1995      C2336   1.503       .  S
C1996      C2000   1.553       .  S
C1996      C1998   1.555   1_655  S
C1996      H2002   1.109       .  S
C1997      H2003   1.086       .  S
C1998      C2308   1.513       .  S
C1999      H2004   1.083       .  S
C1999      C2000   1.372   1_455  D
C2000      C2357   1.518       .  S
C2005      C2902   1.539       .  S
C2005      C2011   1.535       .  S
C2005      C2009   1.545       .  S
C2005      C2273   1.564       .  S
C2006      C2901   1.539   1_545  S
C2006      H2013   1.081       .  S
C2006      C2007   1.368       .  D
C2007      C2904   1.548   1_545  S
C2007      C2420   1.510       .  S
C2008      C2903   1.548       .  S
C2008      C2012   1.548       .  S
C2008      C2010   1.545       .  S
C2008      H2014   1.108       .  S
C2009      H2015   1.084       .  S
C2009      C2010   1.366       .  D
C2010      C2448   1.499       .  S
C2011      H2016   1.086       .  S
C2011      C2012   1.372       .  D
C2012      C2245   1.507       .  S
C2017      C2018   1.414       .  A
C2017      C2022   1.416       .  A
C2017      C2035   1.451       .  S
C2018      C2023   1.511       .  S
C2018      C2915   1.416       .  A
C2019      C2914   1.416   1_545  A
C2019      C2020   1.415       .  A
C2019      C2024   1.450       .  S
C2020      C2917   1.412   1_545  A
C2020      C2036   1.451       .  S
C2021      C2916   1.412       .  A
C2021      C2022   1.414       .  A
C2022      C2025   1.449       .  S
C2023      C2026   1.408       .  A
C2023      C2030   1.409       .  A
C2024      N2041   1.157       .  T
C2025      N2043   1.157       .  T
C2026      C2027   1.415       .  A
C2026      C2031   1.453       .  S
C2027      C2028   1.427       .  A
C2027      C2033   1.447       .  S
C2028      C2029   1.431       .  A
C2029      C2030   1.419       .  A
C2029      C2032   1.451       .  S
C2030      C2034   1.451       .  S
C2031      N2038   1.157       .  T
C2032      N2039   1.157       .  T
C2033      N2037   1.156       .  T
C2034      N2040   1.157       .  T
C2035      N2044   1.157       .  T
C2036      N2042   1.157       .  T
C2045      C2942   1.409   1_545  A
C2045      C2050   1.412       .  A
C2045      C2063   1.451       .  S
C2046      C2051   1.503       .  S
C2046      C2941   1.409       .  A
C2046      C2047   1.410       .  A
C2047      C2048   1.416       .  A
C2047      C2052   1.451       .  S
C2048      C2049   1.416       .  A
C2048      C2064   1.447       .  S
C2049      C2946   1.418       .  A
C2050      C2945   1.418   1_545  A
C2050      C2053   1.450       .  S
C2051      C2950   1.409       .  A
C2051      C2058   1.407       .  A
C2052      N2069   1.157       .  T
C2053      N2071   1.157       .  T
C2054      C2947   1.409   1_545  A
C2054      C2055   1.416       .  A
C2054      C2059   1.451       .  S
C2055      C2952   1.423   1_545  A
C2055      C2061   1.451       .  S
C2056      C2951   1.423       .  A
C2056      C2057   1.425       .  A
C2057      C2058   1.414       .  A
C2057      C2060   1.450       .  S
C2058      C2062   1.452       .  S
C2059      N2066   1.157       .  T
C2060      N2067   1.157       .  T
C2061      N2065   1.157       .  T
C2062      N2068   1.157       .  T
C2063      N2072   1.157       .  T
C2064      N2070   1.157       .  T
C2073      C2074   1.407       .  A
C2073      C2078   1.418       .  A
C2073      C2091   1.453       .  S
C2074      C2079   1.503       .  S
C2075      C2076   1.412       .  A
C2075      C2080   1.453       .  S
C2076      C2092   1.451       .  S
C2077      C2078   1.429       .  A
C2078      C2081   1.447       .  S
C2079      C2082   1.411       .  A
C2080      N2097   1.157       .  T
C2081      N2099   1.158       .  T
C2082      C2083   1.416       .  A
C2082      C2087   1.450   1_655  S
C2083      C2084   1.421       .  A
C2083      C2089   1.451   1_655  S
C2085      C2086   1.412       .  A
C2085      C2088   1.451       .  S
C2086      C2090   1.453       .  S
C2087      N2094   1.157       .  T
C2088      N2095   1.157       .  T
C2089      N2093   1.158       .  T
C2090      N2096   1.157       .  T
C2091      N2100   1.157       .  T
C2092      N2098   1.157       .  T
C2101      C2106   1.415       .  A
C2101      C2119   1.451       .  S
C2102      C2107   1.510       .  S
C2102      C2103   1.411       .  A
C2103      C2104   1.419       .  A
C2103      C2108   1.450       .  S
C2104      C2105   1.420   1_655  A
C2104      C2120   1.446       .  S
C2106      C2109   1.449       .  S
C2107      C2110   1.410       .  A
C2107      C2114   1.409       .  A
C2108      N2125   1.157       .  T
C2109      N2127   1.157       .  T
C2110      C2111   1.419       .  A
C2110      C2115   1.450   1_655  S
C2111      C2112   1.422       .  A
C2111      C2117   1.449   1_655  S
C2112      C2113   1.425       .  A
C2113      C2114   1.416       .  A
C2115      N2122   1.157       .  T
C2116      N2123   1.157       .  T
C2117      N2121   1.157       .  T
C2118      N2124   1.157       .  T
C2119      N2128   1.157       .  T
C2120      N2126   1.157       .  T
C2129      C2130   1.414   1_556  A
C2129      C2134   1.402       .  A
C2129      C2147   1.451       .  S
C2130      C2135   1.495       .  S
C2130      C2131   1.414       .  A
C2131      C2132   1.408       .  A
C2131      C2136   1.452       .  S
C2132      C2133   1.414       .  A
C2132      C2148   1.450       .  S
C2133      C2134   1.406   1_554  A
C2134      C2137   1.449       .  S
C2135      C2138   1.416       .  A
C2135      C2142   1.413   1_554  A
C2136      N2153   1.157       .  T
C2137      N2155   1.157       .  T
C2138      C2139   1.410       .  A
C2138      C2143   1.452       .  S
C2139      C2140   1.411       .  A
C2139      C2145   1.450       .  S
C2140      C2141   1.413   1_554  A
C2141      C2142   1.404       .  A
C2141      C2144   1.452       .  S
C2142      C2146   1.452       .  S
C2143      N2150   1.157       .  T
C2144      N2151   1.157       .  T
C2145      N2149   1.157       .  T
C2146      N2152   1.157       .  T
C2147      N2156   1.157       .  T
C2148      N2154   1.157       .  T
C2157      C2158   1.414       .  A
C2157      C2162   1.408       .  A
C2157      C2175   1.450       .  S
C2158      C2163   1.492       .  S
C2158      C2159   1.413   1_556  A
C2159      C2160   1.404       .  A
C2159      C2164   1.451       .  S
C2160      C2161   1.407   1_554  A
C2160      C2176   1.452       .  S
C2161      C2162   1.409       .  A
C2162      C2165   1.452       .  S
C2163      C2166   1.412   1_556  A
C2163      C2170   1.412       .  A
C2164      N2181   1.157       .  T
C2165      N2183   1.157       .  T
C2166      C2167   1.405       .  A
C2166      C2171   1.453       .  S
C2167      C2168   1.415   1_554  A
C2167      C2173   1.452       .  S
C2168      C2169   1.416       .  A
C2169      C2170   1.408       .  A
C2169      C2172   1.452       .  S
C2170      C2174   1.451       .  S
C2171      N2178   1.157       .  T
C2172      N2179   1.157       .  T
C2173      N2177   1.157       .  T
C2174      N2180   1.157       .  T
C2175      N2184   1.157       .  T
C2176      N2182   1.157       .  T
C2185      C2186   1.412       .  A
C2185      C2190   1.413       .  A
C2185      C2203   1.450       .  S
C2186      C2191   1.496       .  S
C2186      C2187   1.411   1_556  A
C2187      C2188   1.407       .  A
C2187      C2192   1.451       .  S
C2188      C2189   1.412   1_554  A
C2188      C2204   1.451       .  S
C2189      C2190   1.412       .  A
C2190      C2193   1.449       .  S
C2191      C2194   1.408       .  A
C2191      C2198   1.407       .  A
C2192      N2209   1.157       .  T
C2193      N2211   1.157       .  T
C2194      C2195   1.415       .  A
C2194      C2199   1.451       .  S
C2195      C2196   1.423       .  A
C2195      C2201   1.451       .  S
C2196      C2197   1.423   1_556  A
C2197      C2198   1.409   1_554  A
C2197      C2200   1.452       .  S
C2198      C2202   1.453   1_556  S
C2199      N2206   1.157       .  T
C2200      N2207   1.157       .  T
C2201      N2205   1.157       .  T
C2202      N2208   1.157       .  T
C2203      N2212   1.157       .  T
C2204      N2210   1.157       .  T
C2213      C2214   1.407       .  A
C2213      C2218   1.410       .  A
C2213      C2231   1.451       .  S
C2214      C2219   1.490       .  S
C2214      C2215   1.406       .  A
C2215      C2216   1.406       .  A
C2215      C2220   1.453   1_554  S
C2216      C2217   1.419       .  A
C2216      C2232   1.445   1_554  S
C2217      C2218   1.421       .  A
C2218      C2221   1.449       .  S
C2219      C2222   1.411       .  A
C2219      C2226   1.412   1_554  A
C2220      N2237   1.157       .  T
C2221      N2239   1.156       .  T
C2222      C2223   1.409       .  A
C2222      C2227   1.450       .  S
C2223      C2224   1.411       .  A
C2223      C2229   1.450       .  S
C2224      C2225   1.410   1_554  A
C2225      C2226   1.405       .  A
C2225      C2228   1.451       .  S
C2226      C2230   1.452       .  S
C2227      N2234   1.157       .  T
C2228      N2235   1.157       .  T
C2229      N2233   1.157       .  T
C2230      N2236   1.157       .  T
C2231      N2240   1.157       .  T
C2232      N2238   1.155       .  T
C2241      C3138   1.410   1_545  A
C2241      C2246   1.412       .  A
C2241      C2259   1.451       .  S
C2242      C2247   1.503       .  S
C2242      C3137   1.410       .  A
C2242      C2243   1.410       .  A
C2243      C2244   1.416       .  A
C2243      C2248   1.450       .  S
C2244      C2245   1.419       .  A
C2244      C2260   1.447       .  S
C2245      C3142   1.419       .  A
C2246      C3141   1.419       .  A
C2246      C2249   1.450       .  S
C2247      C2250   1.407       .  A
C2247      C3150   1.410       .  A
C2248      N2265   1.157       .  T
C2249      N2267   1.157       .  T
C2250      C2251   1.412       .  A
C2250      C2255   1.454       .  S
C2251      C2252   1.427       .  A
C2251      C2257   1.451       .  S
C2252      C2823   1.512       .  S
C2252      C3149   1.422       .  A
C2253      C3148   1.422   1_545  A
C2253      C2254   1.419       .  A
C2253      C2256   1.450       .  S
C2254      C3143   1.410   1_545  A
C2254      C2258   1.450       .  S
C2255      N2262   1.157       .  T
C2256      N2263   1.157       .  T
C2257      N2261   1.157       .  T
C2258      N2264   1.157       .  T
C2259      N2268   1.157       .  T
C2260      N2266   1.157       .  T
C2269      C2270   1.410       .  A
C2269      C2274   1.416       .  A
C2269      C2287   1.452       .  S
C2270      C2275   1.509       .  S
C2270      C3167   1.408       .  A
C2271      C3166   1.408   1_545  A
C2271      C2272   1.416       .  A
C2271      C2276   1.452       .  S
C2272      C3169   1.430   1_545  A
C2272      C2288   1.450       .  S
C2273      C3168   1.430       .  A
C2273      C2274   1.425       .  A
C2274      C2277   1.449       .  S
C2275      C3174   1.406       .  A
C2275      C2282   1.410       .  A
C2276      N2293   1.157       .  T
C2277      N2295   1.157       .  T
C2278      C3171   1.406   1_565  A
C2278      C2279   1.412       .  A
C2278      C2283   1.454       .  S
C2279      C3176   1.434       .  A
C2279      C2285   1.454       .  S
C2280      C2824   1.523       .  S
C2280      C3175   1.434       .  A
C2280      C2281   1.427       .  A
C2281      C2282   1.421       .  A
C2281      C2284   1.450       .  S
C2282      C2286   1.451       .  S
C2283      N2290   1.157       .  T
C2284      N2291   1.158       .  T
C2285      N2289   1.158       .  T
C2286      N2292   1.157       .  T
C2287      N2296   1.157       .  T
C2288      N2294   1.157       .  T
C2297      C2302   1.415       .  A
C2297      C2315   1.450       .  S
C2298      C2303   1.508       .  S
C2298      C2299   1.414       .  A
C2299      C2300   1.416       .  A
C2299      C2304   1.449       .  S
C2300      C2301   1.413       .  A
C2300      C2316   1.450       .  S
C2302      C2305   1.452       .  S
C2303      C2310   1.412       .  A
C2304      N2321   1.157       .  T
C2305      N2323   1.158       .  T
C2306      C2307   1.414       .  A
C2306      C2311   1.451       .  S
C2307      C2313   1.449       .  S
C2308      C2309   1.418   1_455  A
C2309      C2310   1.419       .  A
C2309      C2312   1.448       .  S
C2310      C2314   1.450       .  S
C2311      N2318   1.157       .  T
C2312      N2319   1.157       .  T
C2313      N2317   1.156       .  T
C2314      N2320   1.157       .  T
C2315      N2324   1.157       .  T
C2316      N2322   1.157       .  T
C2325      C2330   1.419       .  A
C2325      C2343   1.450       .  S
C2326      C2331   1.505       .  S
C2326      C2327   1.405       .  A
C2327      C2328   1.412       .  A
C2327      C2332   1.454       .  S
C2328      C2329   1.432       .  A
C2328      C2344   1.453       .  S
C2330      C2333   1.450       .  S
C2331      C2338   1.412       .  A
C2332      N2349   1.157       .  T
C2333      N2351   1.157       .  T
C2334      C2335   1.412       .  A
C2334      C2339   1.451       .  S
C2335      C2341   1.450       .  S
C2336      C2337   1.414   1_455  A
C2337      C2338   1.417       .  A
C2337      C2340   1.447       .  S
C2338      C2342   1.450       .  S
C2339      N2346   1.157       .  T
C2340      N2347   1.157       .  T
C2341      N2345   1.157       .  T
C2342      N2348   1.157       .  T
C2343      N2352   1.157       .  T
C2344      N2350   1.158       .  T
C2353      C2354   1.411       .  A
C2353      C2358   1.418       .  A
C2353      C2371   1.451       .  S
C2354      C2359   1.512       .  S
C2354      C2355   1.411       .  A
C2355      C2356   1.418       .  A
C2355      C2360   1.452       .  S
C2356      C2357   1.425       .  A
C2356      C2372   1.451       .  S
C2357      C2358   1.420       .  A
C2358      C2361   1.448       .  S
C2359      C2362   1.415       .  A
C2359      C2366   1.413       .  A
C2360      N2377   1.157       .  T
C2361      N2379   1.157       .  T
C2362      C2363   1.417       .  A
C2362      C2367   1.449       .  S
C2363      C2364   1.414       .  A
C2363      C2369   1.451       .  S
C2364      C2365   1.416       .  A
C2365      C2366   1.414       .  A
C2365      C2368   1.450       .  S
C2366      C2370   1.451       .  S
C2367      N2374   1.157       .  T
C2368      N2375   1.157       .  T
C2369      N2373   1.157       .  T
C2370      N2376   1.157       .  T
C2371      N2380   1.157       .  T
C2372      N2378   1.157       .  T
C2381      C2382   1.410       .  A
C2381      C2386   1.410       .  A
C2381      C2399   1.450       .  S
C2382      C2387   1.501       .  S
C2382      C2383   1.412       .  A
C2383      C2384   1.415       .  A
C2383      C2388   1.450       .  S
C2384      C2385   1.416       .  A
C2384      C2400   1.450       .  S
C2385      C2386   1.415       .  A
C2386      C2389   1.450       .  S
C2387      C2390   1.405       .  A
C2387      C2394   1.403       .  A
C2388      N2405   1.157       .  T
C2389      N2407   1.157       .  T
C2390      C2391   1.415       .  A
C2390      C2395   1.452       .  S
C2391      C2392   1.430       .  A
C2391      C2397   1.449       .  S
C2392      C2393   1.434       .  A
C2393      C2394   1.416       .  A
C2393      C2396   1.447       .  S
C2394      C2398   1.454       .  S
C2395      N2402   1.157       .  T
C2396      N2403   1.156       .  T
C2397      N2401   1.157       .  T
C2398      N2404   1.157       .  T
C2399      N2408   1.157       .  T
C2400      N2406   1.157       .  T
C2409      C2410   1.412       .  A
C2409      C2414   1.417       .  A
C2409      C2427   1.451       .  S
C2410      C2415   1.504       .  S
C2410      C2411   1.408       .  A
C2411      C2412   1.407       .  A
C2411      C2416   1.455       .  S
C2412      C2413   1.426       .  A
C2412      C2428   1.452       .  S
C2413      C2414   1.424       .  A
C2414      C2417   1.451       .  S
C2415      C2418   1.410       .  A
C2415      C2422   1.411       .  A
C2416      N2433   1.157       .  T
C2417      N2435   1.158       .  T
C2418      C2419   1.408       .  A
C2418      C2423   1.453       .  S
C2419      C2420   1.422       .  A
C2419      C2425   1.452       .  S
C2420      C2421   1.422       .  A
C2421      C2422   1.416       .  A
C2421      C2424   1.448       .  S
C2422      C2426   1.452       .  S
C2423      N2430   1.157       .  T
C2424      N2431   1.157       .  T
C2425      N2429   1.157       .  T
C2426      N2432   1.157       .  T
C2427      N2436   1.157       .  T
C2428      N2434   1.157       .  T
C2437      C2438   1.412       .  A
C2437      C2442   1.414       .  A
C2437      C2455   1.451       .  S
C2438      C2443   1.511       .  S
C2438      C2439   1.416       .  A
C2439      C2440   1.417       .  A
C2439      C2444   1.450       .  S
C2440      C2441   1.413       .  A
C2440      C2456   1.449       .  S
C2441      C2442   1.417       .  A
C2442      C2445   1.449       .  S
C2443      C2446   1.417       .  A
C2443      C2450   1.413       .  A
C2444      N2461   1.157       .  T
C2445      N2463   1.156       .  T
C2446      C2447   1.417       .  A
C2446      C2451   1.451       .  S
C2447      C2448   1.412       .  A
C2447      C2453   1.449       .  S
C2448      C2449   1.415       .  A
C2449      C2450   1.414       .  A
C2449      C2452   1.451       .  S
C2450      C2454   1.450       .  S
C2451      N2458   1.157       .  T
C2452      N2459   1.157       .  T
C2453      N2457   1.157       .  T
C2454      N2460   1.157       .  T
C2455      N2464   1.157       .  T
C2456      N2462   1.157       .  T
C2465      C2466   1.406       .  A
C2465      C2470   1.407       .  A
C2465      C2483   1.453       .  S
C2466      C2471   1.482       .  S
C2466      C2467   1.404       .  A
C2467      C2468   1.403       .  A
C2467      C2472   1.453       .  S
C2468      C2469   1.423       .  A
C2468      C2484   1.452       .  S
C2469      C2470   1.424       .  A
C2470      C2473   1.452       .  S
C2471      C2474   1.411       .  A
C2471      C2478   1.408       .  A
C2472      N2489   1.157       .  T
C2473      N2491   1.157       .  T
C2474      C2475   1.404       .  A
C2474      C2479   1.451       .  S
C2475      C2476   1.409       .  A
C2475      C2481   1.451       .  S
C2476      C2477   1.413       .  A
C2477      C2478   1.402       .  A
C2477      C2480   1.451       .  S
C2478      C2482   1.452       .  S
C2479      N2486   1.157       .  T
C2480      N2487   1.157       .  T
C2481      N2485   1.157       .  T
C2482      N2488   1.157       .  T
C2483      N2492   1.157       .  T
C2484      N2490   1.157       .  T
C2493      C2494   1.406       .  A
C2493      C2498   1.404       .  A
C2493      C2511   1.453       .  S
C2494      C2499   1.483       .  S
C2494      C2495   1.408       .  A
C2495      C2496   1.406       .  A
C2495      C2500   1.452       .  S
C2496      C2497   1.418       .  A
C2496      C2512   1.452       .  S
C2497      C2498   1.419       .  A
C2498      C2501   1.450       .  S
C2499      C2502   1.410       .  A
C2499      C2506   1.410       .  A
C2500      N2517   1.157       .  T
C2501      N2519   1.156       .  T
C2502      C2503   1.402       .  A
C2502      C2507   1.452       .  S
C2503      C2504   1.410       .  A
C2503      C2509   1.451       .  S
C2504      C2505   1.412       .  A
C2505      C2506   1.405       .  A
C2505      C2508   1.451       .  S
C2506      C2510   1.451       .  S
C2507      N2514   1.157       .  T
C2508      N2515   1.157       .  T
C2509      N2513   1.157       .  T
C2510      N2516   1.157       .  T
C2511      N2520   1.157       .  T
C2512      N2518   1.157       .  T
C2521      C2522   1.407       .  A
C2521      C2526   1.404       .  A
C2521      C2539   1.453       .  S
C2522      C2527   1.481       .  S
C2522      C2523   1.407       .  A
C2523      C2524   1.403       .  A
C2523      C2528   1.453       .  S
C2524      C2525   1.420       .  A
C2524      C2540   1.453       .  S
C2525      C2526   1.420       .  A
C2526      C2529   1.452       .  S
C2527      C2530   1.411       .  A
C2527      C2534   1.410       .  A
C2528      N2545   1.157       .  T
C2529      N2547   1.157       .  T
C2530      C2531   1.403       .  A
C2530      C2535   1.452       .  S
C2531      C2532   1.410       .  A
C2531      C2537   1.451       .  S
C2532      C2533   1.412       .  A
C2533      C2534   1.402       .  A
C2533      C2536   1.452       .  S
C2534      C2538   1.452       .  S
C2535      N2542   1.157       .  T
C2536      N2543   1.157       .  T
C2537      N2541   1.157       .  T
C2538      N2544   1.157       .  T
C2539      N2548   1.157       .  T
C2540      N2546   1.157       .  T
C2549      C2550   1.408       .  A
C2549      C2554   1.407       .  A
C2549      C2567   1.451       .  S
C2550      C2555   1.485       .  S
C2550      C2551   1.406       .  A
C2551      C2552   1.406       .  A
C2551      C2556   1.452       .  S
C2552      C2553   1.420       .  A
C2552      C2568   1.452       .  S
C2553      C2554   1.418       .  A
C2554      C2557   1.452       .  S
C2555      C2558   1.410       .  A
C2555      C2562   1.408       .  A
C2556      N2573   1.157       .  T
C2557      N2575   1.157       .  T
C2558      C2559   1.407       .  A
C2558      C2563   1.451       .  S
C2559      C2560   1.413       .  A
C2559      C2565   1.450       .  S
C2560      C2561   1.414       .  A
C2561      C2562   1.405       .  A
C2561      C2564   1.451       .  S
C2562      C2566   1.451       .  S
C2563      N2570   1.157       .  T
C2564      N2571   1.157       .  T
C2565      N2569   1.157       .  T
C2566      N2572   1.157       .  T
C2567      N2576   1.157       .  T
C2568      N2574   1.157       .  T
C2577      C2578   1.409       .  A
C2577      C2582   1.412       .  A
C2577      C2595   1.451       .  S
C2578      C2583   1.505       .  S
C2578      C2579   1.412       .  A
C2579      C2580   1.417       .  A
C2579      C2584   1.450       .  S
C2580      C2581   1.416       .  A
C2580      C2596   1.449       .  S
C2581      C2582   1.420       .  A
C2582      C2585   1.451       .  S
C2583      C2586   1.407       .  A
C2583      C2590   1.405       .  A
C2584      N2601   1.157       .  T
C2585      N2603   1.157       .  T
C2586      C2587   1.418       .  A
C2586      C2591   1.451       .  S
C2587      C2588   1.431       .  A
C2587      C2593   1.452       .  S
C2588      C2589   1.430       .  A
C2589      C2590   1.415       .  A
C2589      C2592   1.446       .  S
C2590      C2594   1.453       .  S
C2591      N2598   1.157       .  T
C2592      N2599   1.157       .  T
C2593      N2597   1.157       .  T
C2594      N2600   1.157       .  T
C2595      N2604   1.157       .  T
C2596      N2602   1.157       .  T
C2605      C2606   1.414       .  A
C2605      C2610   1.422       .  A
C2605      C2623   1.450       .  S
C2606      C2611   1.510       .  S
C2606      C2607   1.408       .  A
C2607      C2608   1.411       .  A
C2607      C2612   1.453       .  S
C2608      C2609   1.425       .  A
C2608      C2624   1.450       .  S
C2609      C2610   1.421       .  A
C2610      C2613   1.449       .  S
C2611      C2614   1.416       .  A
C2611      C2618   1.415       .  A
C2612      N2629   1.157       .  T
C2613      N2631   1.157       .  T
C2614      C2615   1.413       .  A
C2614      C2619   1.450       .  S
C2615      C2616   1.411       .  A
C2615      C2621   1.451       .  S
C2616      C2617   1.412       .  A
C2617      C2618   1.415       .  A
C2617      C2620   1.451       .  S
C2618      C2622   1.450       .  S
C2619      N2626   1.157       .  T
C2620      N2627   1.157       .  T
C2621      N2625   1.158       .  T
C2622      N2628   1.157       .  T
C2623      N2632   1.157       .  T
C2624      N2630   1.156       .  T
C2633      C2634   1.415       .  A
C2633      C2638   1.419       .  A
C2633      C2651   1.449       .  S
C2634      C2639   1.508       .  S
C2634      C2635   1.411       .  A
C2635      C2636   1.412       .  A
C2635      C2640   1.451       .  S
C2636      C2637   1.415       .  A
C2636      C2652   1.448       .  S
C2637      C2638   1.414       .  A
C2638      C2641   1.450       .  S
C2639      C2642   1.410       .  A
C2639      C2646   1.412       .  A
C2640      N2657   1.157       .  T
C2641      N2659   1.157       .  T
C2642      C2643   1.415       .  A
C2642      C2647   1.451       .  S
C2643      C2644   1.423       .  A
C2643      C2649   1.452       .  S
C2644      C2645   1.417       .  A
C2645      C2646   1.417       .  A
C2645      C2648   1.448       .  S
C2646      C2650   1.450       .  S
C2647      N2654   1.157       .  T
C2648      N2655   1.157       .  T
C2649      N2653   1.157       .  T
C2650      N2656   1.157       .  T
C2651      N2660   1.157       .  T
C2652      N2658   1.156       .  T
C2661      C2662   1.411       .  A
C2661      C2666   1.412       .  A
C2661      C2679   1.452       .  S
C2662      C2667   1.507       .  S
C2662      C2663   1.414       .  A
C2663      C2664   1.415       .  A
C2663      C2668   1.450       .  S
C2664      C2665   1.415       .  A
C2664      C2680   1.451       .  S
C2665      C2666   1.417       .  A
C2666      C2669   1.449       .  S
C2667      C2670   1.411       .  A
C2667      C2674   1.411       .  A
C2668      N2685   1.157       .  T
C2669      N2687   1.156       .  T
C2670      C2671   1.414       .  A
C2670      C2675   1.452       .  S
C2671      C2672   1.419       .  A
C2671      C2677   1.450       .  S
C2672      C2673   1.418       .  A
C2673      C2674   1.416       .  A
C2673      C2676   1.446       .  S
C2674      C2678   1.452       .  S
C2675      N2682   1.157       .  T
C2676      N2683   1.157       .  T
C2677      N2681   1.157       .  T
C2678      N2684   1.157       .  T
C2679      N2688   1.157       .  T
C2680      N2686   1.157       .  T
O2689     Zr2725   2.466       .  S
O2689      C2700   1.298       .  A
O2690     Zr2724   2.462       .  S
O2690      C2701   1.297       .  A
O2691     Zr2697   2.418       .  S
O2691      C2702   1.287       .  A
O2692     Zr2697   2.424       .  S
O2692      C2703   1.288       .  A
O2693     Zr2727   2.422       .  S
O2693      C2703   1.289       .  A
O2694     Zr2726   2.423       .  S
O2694      C2702   1.289       .  A
O2695     Zr2697   2.428       .  S
O2695      C2701   1.290       .  A
O2696     Zr2697   2.435       .  S
O2696      C2700   1.292       .  A
Zr2697     O2698   2.335       .  S
Zr2697     O2699   2.334       .  S
Zr2697     O2707   2.335       .  S
Zr2697     O2705   2.338       .  S
O2698     Zr2724   2.350       .  S
O2698     Zr2727   2.326       .  S
O2699     Zr2725   2.350       .  S
O2699     Zr2726   2.336       .  S
C2700      C3561   1.495       .  S
C2701      C3309   1.509       .  S
C2702      C3365   1.491       .  S
C2703      C3393   1.484       .  S
H2704      O2705   0.971       .  S
O2705     Zr2724   2.350       .  S
O2705     Zr2726   2.332       .  S
H2706      O2707   0.972       .  S
O2707     Zr2725   2.361       .  S
O2707     Zr2727   2.344       .  S
O2708     Zr2724   2.477       .  S
O2708      C2731   1.300       .  A
O2709     Zr2725   2.471       .  S
O2709      C2732   1.298       .  A
O2710     Zr2726   2.440       .  S
O2710      C2733   1.293       .  A
O2711     Zr2727   2.446       .  S
O2711      C2734   1.294       .  A
O2712     Zr2727   2.425       .  S
O2712      C2735   1.290       .  A
O2713     Zr2726   2.428       .  S
O2713      C2736   1.291       .  A
O2714     Zr2728   2.415       .  S
O2714      C2737   1.288       .  A
O2715     Zr2728   2.421       .  S
O2715      C2738   1.288       .  A
O2716     Zr2726   2.428       .  S
O2716      C2737   1.290       .  A
O2717     Zr2727   2.414       .  S
O2717      C2738   1.287       .  A
O2718     Zr2724   2.465       .  S
O2718      C2733   1.297       .  A
O2719     Zr2725   2.489       .  S
O2719      C2736   1.302       .  A
O2720     Zr2725   2.478       .  S
O2720      C2735   1.300       .  A
O2721     Zr2724   2.448       .  S
O2721      C2734   1.294       .  A
O2722     Zr2728   2.431       .  S
O2722      C2731   1.291       .  A
O2723     Zr2728   2.438       .  S
O2723      C2732   1.292       .  A
Zr2724     O2730   2.345       .  S
Zr2724     O2742   2.351       .  S
Zr2725     O2729   2.350       .  S
Zr2725     O2740   2.351       .  S
Zr2726     O2730   2.333       .  S
Zr2726     O2740   2.344       .  S
Zr2727     O2729   2.338       .  S
Zr2727     O2742   2.336       .  S
Zr2728     O2729   2.329       .  S
Zr2728     O2730   2.340       .  S
Zr2728     O2742   2.337       .  S
Zr2728     O2740   2.337       .  S
C2731      C3337   1.497       .  S
C2732      C3533   1.495       .  S
C2733      C3260   1.496       .  S
C2734      C3281   1.491       .  S
C2735      C3477   1.499       .  S
C2736      C3505   1.513       .  S
C2737      C3449   1.486       .  S
C2738      C3421   1.483       .  S
H2739      O2740   0.971       .  S
H2741      O2742   0.970       .  S
N2743      C2748   1.350       .  A
N2743      H2775   1.035       .  S
N2744      C2752   1.348       .  A
N2745      C2750   1.350       .  A
N2745      H2776   1.036       .  S
N2746      C2754   1.348       .  A
C2747      C2755   1.386       .  A
C2747      C2763   1.412       .  A
C2748      C2764   1.413       .  A
C2748      C2756   1.388       .  A
C2749      C2757   1.389       .  A
C2749      C2766   1.413       .  A
C2750      C2765   1.408       .  A
C2750      C2758   1.386       .  A
C2751      C2763   1.411       .  A
C2751      C2759   1.386       .  A
C2752      C2766   1.410       .  A
C2752      C2760   1.387       .  A
C2753      C2761   1.388       .  A
C2753      C2764   1.410       .  A
C2754      C2762   1.385       .  A
C2754      C2765   1.407       .  A
C2755      H2767   1.083       .  S
C2756      H2768   1.081       .  S
C2757      H2769   1.082       .  S
C2758      H2770   1.083       .  S
C2759      H2771   1.082       .  S
C2760      H2772   1.082       .  S
C2761      H2773   1.082       .  S
C2762      H2774   1.082       .  S
C2763      C3456   1.491       .  S
C2764      C3372   1.482       .  S
C2765      C3400   1.484       .  S
C2766      C3428   1.482       .  S
O2777     Zr2813   2.480       .  S
O2777      C2788   1.300       .  A
O2778     Zr2812   2.473       .  S
O2778      C2789   1.299       .  A
O2779      C2790   1.285       .  A
O2780     Zr2785   2.414   1_556  S
O2780      C2791   1.285       .  A
O2781     Zr2815   2.434       .  S
O2781      C2791   1.290       .  A
O2782     Zr2814   2.450       .  S
O2782      C2790   1.294       .  A
O2783     Zr2785   2.421       .  S
O2783      C2789   1.289       .  A
O2784     Zr2785   2.419   1_556  S
O2784      C2788   1.287       .  A
Zr2785     O2786   2.333       .  S
Zr2785     O2795   2.331   1_554  S
O2786     Zr2812   2.346       .  S
O2786     Zr2815   2.336   1_554  S
O2787     Zr2814   2.338   1_556  S
C2788      C3225   1.517       .  S
C2789      C2980   1.508       .  S
C2790      C3029   1.477       .  S
C2791      C3057   1.467       .  S
H2792      O2793   0.972       .  S
O2793     Zr2814   2.338       .  S
H2794      O2795   0.971       .  S
O2795     Zr2813   2.349       .  S
O2795     Zr2815   2.342       .  S
O2796      C2819   1.299       .  A
O2797      C2820   1.298       .  A
O2798     Zr2814   2.435       .  S
O2798      C2821   1.291       .  A
O2799     Zr2815   2.444   1_554  S
O2799      C2822   1.293       .  A
O2800     Zr2815   2.431       .  S
O2801     Zr2814   2.430   1_546  S
O2802      C2825   1.292       .  A
O2803     Zr2816   2.446       .  S
O2803      C2826   1.293       .  A
O2804      C2825   1.292       .  A
O2805      C2826   1.291       .  A
O2806      C2821   1.299       .  A
O2807      C2824   1.301       .  A
O2808      C2823   1.301       .  A
O2809     Zr2812   2.461       .  S
O2809      C2822   1.297       .  A
O2810     Zr2816   2.447   1_554  S
O2810      C2819   1.294       .  A
O2811     Zr2816   2.441       .  S
O2811      C2820   1.292       .  A
Zr2816     O2817   2.343       .  S
Zr2816     O2830   2.342   1_556  S
C2819      C3008   1.514       .  S
C2820      C3197   1.489       .  S
C2821      C2917   1.491       .  S
C2822      C2952   1.509       .  S
C2825      C3113   1.497       .  S
C2826      C3092   1.502       .  S
H2827      O2828   0.965       .  S
H2829      O2830   0.969       .  S
N2831      C2836   1.351   1_554  A
N2831      C2835   1.352   1_554  A
N2831      H2863   1.038       .  S
N2832      C2839   1.349       .  A
N2832      C2840   1.349       .  A
N2833      C2838   1.351       .  A
N2833      C2837   1.353       .  A
N2833      H2864   1.035       .  S
N2834      C2841   1.352       .  A
N2834      C2842   1.351       .  A
C2835      C2843   1.388       .  A
C2835      C2851   1.415   1_556  A
C2836      C2852   1.410       .  A
C2836      C2844   1.385       .  A
C2837      C2845   1.388       .  A
C2837      C2854   1.417       .  A
C2838      C2853   1.415       .  A
C2838      C2846   1.388       .  A
C2839      C2851   1.415       .  A
C2839      C2847   1.388       .  A
C2840      C2854   1.410       .  A
C2840      C2848   1.385       .  A
C2841      C2849   1.385       .  A
C2841      C2852   1.413   1_554  A
C2842      C2850   1.387       .  A
C2842      C2853   1.415       .  A
C2843      C2844   1.373       .  A
C2843      H2855   1.082       .  S
C2844      H2856   1.082       .  S
C2845      C2846   1.370       .  A
C2845      H2857   1.082       .  S
C2846      H2858   1.082       .  S
C2847      C2848   1.372       .  A
C2847      H2859   1.082       .  S
C2848      H2860   1.081       .  S
C2849      C2850   1.375       .  A
C2849      H2861   1.082       .  S
C2850      H2862   1.082       .  S
C2851      C3064   1.497   1_554  S
C2852      C3085   1.494       .  S
C2853      C3120   1.489       .  S
C2854      C3036   1.492       .  S
C2865      C2866   1.551       .  S
C2865      C2869   1.538       .  S
C2865      C3484   1.567       .  S
C2866      H2873   1.079       .  S
C2867      C2868   1.543   1_455  S
C2867      C3001   1.517       .  S
C2868      C2872   1.555       .  S
C2868      C2870   1.551   1_655  S
C2868      H2874   1.101       .  S
C2869      H2875   1.085       .  S
C2870      C2973   1.525   1_455  S
C2871      H2876   1.086       .  S
C2871      C2872   1.362   1_455  D
C2872      C3512   1.494       .  S
C2877      C2878   1.542       .  S
C2877      C2883   1.548       .  S
C2877      C2924   1.567   1_565  S
C2878      H2885   1.084       .  S
C2878      C2879   1.367       .  D
C2879      C2880   1.552       .  S
C2879      C3540   1.511       .  S
C2880      C2884   1.545       .  S
C2880      H2886   1.110       .  S
C2881      H2887   1.086       .  S
C2881      C2882   1.369       .  D
C2882      C3568   1.510       .  S
C2883      H2888   1.083       .  S
C2883      C2884   1.369       .  D
C2884      C2945   1.502       .  S
C2889      C2890   1.541       .  S
C2889      C2893   1.531       .  S
C2889      C3288   1.565       .  S
C2890      H2897   1.084       .  S
C2891      C2892   1.550   1_455  S
C2891      C3232   1.503       .  S
C2892      C2896   1.553       .  S
C2892      C2894   1.555   1_655  S
C2892      H2898   1.109       .  S
C2893      H2899   1.086       .  S
C2894      C3204   1.513       .  S
C2895      H2900   1.083       .  S
C2895      C2896   1.372   1_455  D
C2896      C3253   1.518       .  S
C2901      C2907   1.535       .  S
C2901      C2905   1.545       .  S
C2901      C3169   1.564       .  S
C2902      H2909   1.081       .  S
C2902      C2903   1.368       .  D
C2903      C3316   1.510       .  S
C2904      C2908   1.548       .  S
C2904      C2906   1.545       .  S
C2904      H2910   1.108       .  S
C2905      H2911   1.084       .  S
C2905      C2906   1.366       .  D
C2906      C3344   1.499       .  S
C2907      H2912   1.086       .  S
C2907      C2908   1.372       .  D
C2908      C3141   1.507   1_565  S
C2913      C2914   1.414       .  A
C2913      C2918   1.416       .  A
C2913      C2931   1.451       .  S
C2914      C2919   1.511       .  S
C2915      C2916   1.415       .  A
C2915      C2920   1.450       .  S
C2916      C2932   1.451       .  S
C2917      C2918   1.414       .  A
C2918      C2921   1.449       .  S
C2919      C2922   1.408   1_565  A
C2919      C2926   1.409       .  A
C2920      N2937   1.157       .  T
C2921      N2939   1.157       .  T
C2922      C2923   1.415       .  A
C2922      C2927   1.453       .  S
C2923      C2924   1.427       .  A
C2923      C2929   1.447       .  S
C2924      C2925   1.431   1_545  A
C2925      C2926   1.419       .  A
C2925      C2928   1.451       .  S
C2926      C2930   1.451       .  S
C2927      N2934   1.157       .  T
C2928      N2935   1.157       .  T
C2929      N2933   1.156       .  T
C2930      N2936   1.157       .  T
C2931      N2940   1.157       .  T
C2932      N2938   1.157       .  T
C2941      C2946   1.412       .  A
C2941      C2959   1.451       .  S
C2942      C2947   1.503       .  S
C2942      C2943   1.410       .  A
C2943      C2944   1.416       .  A
C2943      C2948   1.451       .  S
C2944      C2945   1.416       .  A
C2944      C2960   1.447       .  S
C2946      C2949   1.450       .  S
C2947      C2954   1.407       .  A
C2948      N2965   1.157       .  T
C2949      N2967   1.157       .  T
C2950      C2951   1.416       .  A
C2950      C2955   1.451       .  S
C2951      C2957   1.451       .  S
C2952      C2953   1.425       .  A
C2953      C2954   1.414       .  A
C2953      C2956   1.450       .  S
C2954      C2958   1.452       .  S
C2955      N2962   1.157       .  T
C2956      N2963   1.157       .  T
C2957      N2961   1.157       .  T
C2958      N2964   1.157       .  T
C2959      N2968   1.157       .  T
C2960      N2966   1.157       .  T
C2969      C2970   1.407       .  A
C2969      C2974   1.418       .  A
C2969      C2987   1.453       .  S
C2970      C2975   1.503       .  S
C2971      C2972   1.412       .  A
C2971      C2976   1.453       .  S
C2972      C2988   1.451       .  S
C2973      C2974   1.429       .  A
C2974      C2977   1.447       .  S
C2975      C2978   1.411       .  A
C2976      N2993   1.157       .  T
C2977      N2995   1.158       .  T
C2978      C2979   1.416       .  A
C2978      C2983   1.450   1_655  S
C2979      C2980   1.421       .  A
C2979      C2985   1.451   1_655  S
C2981      C2982   1.412       .  A
C2981      C2984   1.451       .  S
C2982      C2986   1.453       .  S
C2983      N2990   1.157       .  T
C2984      N2991   1.157       .  T
C2985      N2989   1.158       .  T
C2986      N2992   1.157       .  T
C2987      N2996   1.157       .  T
C2988      N2994   1.157       .  T
C2997      C3002   1.415       .  A
C2997      C3015   1.451       .  S
C2998      C3003   1.510       .  S
C2998      C2999   1.411       .  A
C2999      C3000   1.419       .  A
C2999      C3004   1.450       .  S
C3000      C3001   1.420   1_655  A
C3000      C3016   1.446       .  S
C3002      C3005   1.449       .  S
C3003      C3006   1.410       .  A
C3003      C3010   1.409       .  A
C3004      N3021   1.157       .  T
C3005      N3023   1.157       .  T
C3006      C3007   1.419       .  A
C3006      C3011   1.450   1_655  S
C3007      C3008   1.422       .  A
C3007      C3013   1.449   1_655  S
C3008      C3009   1.425       .  A
C3009      C3010   1.416       .  A
C3011      N3018   1.157       .  T
C3012      N3019   1.157       .  T
C3013      N3017   1.157       .  T
C3014      N3020   1.157       .  T
C3015      N3024   1.157       .  T
C3016      N3022   1.157       .  T
C3025      C3026   1.414   1_556  A
C3025      C3030   1.402       .  A
C3025      C3043   1.451       .  S
C3026      C3031   1.495       .  S
C3026      C3027   1.414       .  A
C3027      C3028   1.408       .  A
C3027      C3032   1.452       .  S
C3028      C3029   1.414       .  A
C3028      C3044   1.450       .  S
C3029      C3030   1.406   1_554  A
C3030      C3033   1.449       .  S
C3031      C3034   1.416       .  A
C3031      C3038   1.413   1_554  A
C3032      N3049   1.157       .  T
C3033      N3051   1.157       .  T
C3034      C3035   1.410       .  A
C3034      C3039   1.452       .  S
C3035      C3036   1.411       .  A
C3035      C3041   1.450       .  S
C3036      C3037   1.413   1_554  A
C3037      C3038   1.404       .  A
C3037      C3040   1.452       .  S
C3038      C3042   1.452       .  S
C3039      N3046   1.157       .  T
C3040      N3047   1.157       .  T
C3041      N3045   1.157       .  T
C3042      N3048   1.157       .  T
C3043      N3052   1.157       .  T
C3044      N3050   1.157       .  T
C3053      C3054   1.414       .  A
C3053      C3058   1.408       .  A
C3053      C3071   1.450       .  S
C3054      C3059   1.492       .  S
C3054      C3055   1.413   1_556  A
C3055      C3056   1.404       .  A
C3055      C3060   1.451       .  S
C3056      C3057   1.407   1_554  A
C3056      C3072   1.452       .  S
C3057      C3058   1.409       .  A
C3058      C3061   1.452       .  S
C3059      C3062   1.412   1_556  A
C3059      C3066   1.412       .  A
C3060      N3077   1.157       .  T
C3061      N3079   1.157       .  T
C3062      C3063   1.405       .  A
C3062      C3067   1.453       .  S
C3063      C3064   1.415   1_554  A
C3063      C3069   1.452       .  S
C3064      C3065   1.416       .  A
C3065      C3066   1.408       .  A
C3065      C3068   1.452       .  S
C3066      C3070   1.451       .  S
C3067      N3074   1.157       .  T
C3068      N3075   1.157       .  T
C3069      N3073   1.157       .  T
C3070      N3076   1.157       .  T
C3071      N3080   1.157       .  T
C3072      N3078   1.157       .  T
C3081      C3082   1.412       .  A
C3081      C3086   1.413       .  A
C3081      C3099   1.450       .  S
C3082      C3087   1.496       .  S
C3082      C3083   1.411   1_556  A
C3083      C3084   1.407       .  A
C3083      C3088   1.451       .  S
C3084      C3085   1.412   1_554  A
C3084      C3100   1.451       .  S
C3085      C3086   1.412       .  A
C3086      C3089   1.449       .  S
C3087      C3090   1.408       .  A
C3087      C3094   1.407       .  A
C3088      N3105   1.157       .  T
C3089      N3107   1.157       .  T
C3090      C3091   1.415       .  A
C3090      C3095   1.451       .  S
C3091      C3092   1.423       .  A
C3091      C3097   1.451       .  S
C3092      C3093   1.423   1_556  A
C3093      C3094   1.409   1_554  A
C3093      C3096   1.452       .  S
C3094      C3098   1.453   1_556  S
C3095      N3102   1.157       .  T
C3096      N3103   1.157       .  T
C3097      N3101   1.157       .  T
C3098      N3104   1.157       .  T
C3099      N3108   1.157       .  T
C3100      N3106   1.157       .  T
C3109      C3110   1.407       .  A
C3109      C3114   1.410       .  A
C3109      C3127   1.451       .  S
C3110      C3115   1.490       .  S
C3110      C3111   1.406       .  A
C3111      C3112   1.406       .  A
C3111      C3116   1.453   1_554  S
C3112      C3113   1.419       .  A
C3112      C3128   1.445   1_554  S
C3113      C3114   1.421       .  A
C3114      C3117   1.449       .  S
C3115      C3118   1.411       .  A
C3115      C3122   1.412   1_554  A
C3116      N3133   1.157       .  T
C3117      N3135   1.156       .  T
C3118      C3119   1.409       .  A
C3118      C3123   1.450       .  S
C3119      C3120   1.411       .  A
C3119      C3125   1.450       .  S
C3120      C3121   1.410   1_554  A
C3121      C3122   1.405       .  A
C3121      C3124   1.451       .  S
C3122      C3126   1.452       .  S
C3123      N3130   1.157       .  T
C3124      N3131   1.157       .  T
C3125      N3129   1.157       .  T
C3126      N3132   1.157       .  T
C3127      N3136   1.157       .  T
C3128      N3134   1.155       .  T
C3137      C3142   1.412       .  A
C3137      C3155   1.451       .  S
C3138      C3143   1.503       .  S
C3138      C3139   1.410       .  A
C3139      C3140   1.416       .  A
C3139      C3144   1.450       .  S
C3140      C3141   1.419   1_565  A
C3140      C3156   1.447       .  S
C3142      C3145   1.450       .  S
C3143      C3146   1.407       .  A
C3144      N3161   1.157       .  T
C3145      N3163   1.157       .  T
C3146      C3147   1.412       .  A
C3146      C3151   1.454       .  S
C3147      C3148   1.427       .  A
C3147      C3153   1.451       .  S
C3149      C3150   1.419       .  A
C3149      C3152   1.450       .  S
C3150      C3154   1.450       .  S
C3151      N3158   1.157       .  T
C3152      N3159   1.157       .  T
C3153      N3157   1.157       .  T
C3154      N3160   1.157       .  T
C3155      N3164   1.157       .  T
C3156      N3162   1.157       .  T
C3165      C3166   1.410       .  A
C3165      C3170   1.416       .  A
C3165      C3183   1.452       .  S
C3166      C3171   1.509   1_565  S
C3167      C3168   1.416       .  A
C3167      C3172   1.452       .  S
C3168      C3184   1.450       .  S
C3169      C3170   1.425       .  A
C3170      C3173   1.449       .  S
C3171      C3178   1.410       .  A
C3172      N3189   1.157       .  T
C3173      N3191   1.157       .  T
C3174      C3175   1.412       .  A
C3174      C3179   1.454       .  S
C3175      C3181   1.454       .  S
C3176      C3177   1.427   1_565  A
C3177      C3178   1.421       .  A
C3177      C3180   1.450       .  S
C3178      C3182   1.451       .  S
C3179      N3186   1.157       .  T
C3180      N3187   1.158       .  T
C3181      N3185   1.158       .  T
C3182      N3188   1.157       .  T
C3183      N3192   1.157       .  T
C3184      N3190   1.157       .  T
C3193      C3198   1.415       .  A
C3193      C3211   1.450       .  S
C3194      C3199   1.508       .  S
C3194      C3195   1.414       .  A
C3195      C3196   1.416       .  A
C3195      C3200   1.449       .  S
C3196      C3197   1.413       .  A
C3196      C3212   1.450       .  S
C3198      C3201   1.452       .  S
C3199      C3206   1.412       .  A
C3200      N3217   1.157       .  T
C3201      N3219   1.158       .  T
C3202      C3203   1.414       .  A
C3202      C3207   1.451       .  S
C3203      C3209   1.449       .  S
C3204      C3205   1.418   1_455  A
C3205      C3206   1.419       .  A
C3205      C3208   1.448       .  S
C3206      C3210   1.450       .  S
C3207      N3214   1.157       .  T
C3208      N3215   1.157       .  T
C3209      N3213   1.156       .  T
C3210      N3216   1.157       .  T
C3211      N3220   1.157       .  T
C3212      N3218   1.157       .  T
C3221      C3226   1.419       .  A
C3221      C3239   1.450       .  S
C3222      C3227   1.505       .  S
C3222      C3223   1.405       .  A
C3223      C3224   1.412       .  A
C3223      C3228   1.454       .  S
C3224      C3225   1.432       .  A
C3224      C3240   1.453       .  S
C3226      C3229   1.450       .  S
C3227      C3234   1.412       .  A
C3228      N3245   1.157       .  T
C3229      N3247   1.157       .  T
C3230      C3231   1.412       .  A
C3230      C3235   1.451       .  S
C3231      C3237   1.450       .  S
C3232      C3233   1.414   1_455  A
C3233      C3234   1.417       .  A
C3233      C3236   1.447       .  S
C3234      C3238   1.450       .  S
C3235      N3242   1.157       .  T
C3236      N3243   1.157       .  T
C3237      N3241   1.157       .  T
C3238      N3244   1.157       .  T
C3239      N3248   1.157       .  T
C3240      N3246   1.158       .  T
C3249      C3250   1.411       .  A
C3249      C3254   1.418       .  A
C3249      C3267   1.451       .  S
C3250      C3255   1.512       .  S
C3250      C3251   1.411       .  A
C3251      C3252   1.418       .  A
C3251      C3256   1.452       .  S
C3252      C3253   1.425       .  A
C3252      C3268   1.451       .  S
C3253      C3254   1.420       .  A
C3254      C3257   1.448       .  S
C3255      C3258   1.415       .  A
C3255      C3262   1.413       .  A
C3256      N3273   1.157       .  T
C3257      N3275   1.157       .  T
C3258      C3259   1.417       .  A
C3258      C3263   1.449       .  S
C3259      C3260   1.414       .  A
C3259      C3265   1.451       .  S
C3260      C3261   1.416       .  A
C3261      C3262   1.414       .  A
C3261      C3264   1.450       .  S
C3262      C3266   1.451       .  S
C3263      N3270   1.157       .  T
C3264      N3271   1.157       .  T
C3265      N3269   1.157       .  T
C3266      N3272   1.157       .  T
C3267      N3276   1.157       .  T
C3268      N3274   1.157       .  T
C3277      C3278   1.410       .  A
C3277      C3282   1.410       .  A
C3277      C3295   1.450       .  S
C3278      C3283   1.501       .  S
C3278      C3279   1.412       .  A
C3279      C3280   1.415       .  A
C3279      C3284   1.450       .  S
C3280      C3281   1.416       .  A
C3280      C3296   1.450       .  S
C3281      C3282   1.415       .  A
C3282      C3285   1.450       .  S
C3283      C3286   1.405       .  A
C3283      C3290   1.403       .  A
C3284      N3301   1.157       .  T
C3285      N3303   1.157       .  T
C3286      C3287   1.415       .  A
C3286      C3291   1.452       .  S
C3287      C3288   1.430       .  A
C3287      C3293   1.449       .  S
C3288      C3289   1.434       .  A
C3289      C3290   1.416       .  A
C3289      C3292   1.447       .  S
C3290      C3294   1.454       .  S
C3291      N3298   1.157       .  T
C3292      N3299   1.156       .  T
C3293      N3297   1.157       .  T
C3294      N3300   1.157       .  T
C3295      N3304   1.157       .  T
C3296      N3302   1.157       .  T
C3305      C3306   1.412       .  A
C3305      C3310   1.417       .  A
C3305      C3323   1.451       .  S
C3306      C3311   1.504       .  S
C3306      C3307   1.408       .  A
C3307      C3308   1.407       .  A
C3307      C3312   1.455       .  S
C3308      C3309   1.426       .  A
C3308      C3324   1.452       .  S
C3309      C3310   1.424       .  A
C3310      C3313   1.451       .  S
C3311      C3314   1.410       .  A
C3311      C3318   1.411       .  A
C3312      N3329   1.157       .  T
C3313      N3331   1.158       .  T
C3314      C3315   1.408       .  A
C3314      C3319   1.453       .  S
C3315      C3316   1.422       .  A
C3315      C3321   1.452       .  S
C3316      C3317   1.422       .  A
C3317      C3318   1.416       .  A
C3317      C3320   1.448       .  S
C3318      C3322   1.452       .  S
C3319      N3326   1.157       .  T
C3320      N3327   1.157       .  T
C3321      N3325   1.157       .  T
C3322      N3328   1.157       .  T
C3323      N3332   1.157       .  T
C3324      N3330   1.157       .  T
C3333      C3334   1.412       .  A
C3333      C3338   1.414       .  A
C3333      C3351   1.451       .  S
C3334      C3339   1.511       .  S
C3334      C3335   1.416       .  A
C3335      C3336   1.417       .  A
C3335      C3340   1.450       .  S
C3336      C3337   1.413       .  A
C3336      C3352   1.449       .  S
C3337      C3338   1.417       .  A
C3338      C3341   1.449       .  S
C3339      C3342   1.417       .  A
C3339      C3346   1.413       .  A
C3340      N3357   1.157       .  T
C3341      N3359   1.156       .  T
C3342      C3343   1.417       .  A
C3342      C3347   1.451       .  S
C3343      C3344   1.412       .  A
C3343      C3349   1.449       .  S
C3344      C3345   1.415       .  A
C3345      C3346   1.414       .  A
C3345      C3348   1.451       .  S
C3346      C3350   1.450       .  S
C3347      N3354   1.157       .  T
C3348      N3355   1.157       .  T
C3349      N3353   1.157       .  T
C3350      N3356   1.157       .  T
C3351      N3360   1.157       .  T
C3352      N3358   1.157       .  T
C3361      C3362   1.406       .  A
C3361      C3366   1.407       .  A
C3361      C3379   1.453       .  S
C3362      C3367   1.482       .  S
C3362      C3363   1.404       .  A
C3363      C3364   1.403       .  A
C3363      C3368   1.453       .  S
C3364      C3365   1.423       .  A
C3364      C3380   1.452       .  S
C3365      C3366   1.424       .  A
C3366      C3369   1.452       .  S
C3367      C3370   1.411       .  A
C3367      C3374   1.408       .  A
C3368      N3385   1.157       .  T
C3369      N3387   1.157       .  T
C3370      C3371   1.404       .  A
C3370      C3375   1.451       .  S
C3371      C3372   1.409       .  A
C3371      C3377   1.451       .  S
C3372      C3373   1.413       .  A
C3373      C3374   1.402       .  A
C3373      C3376   1.451       .  S
C3374      C3378   1.452       .  S
C3375      N3382   1.157       .  T
C3376      N3383   1.157       .  T
C3377      N3381   1.157       .  T
C3378      N3384   1.157       .  T
C3379      N3388   1.157       .  T
C3380      N3386   1.157       .  T
C3389      C3390   1.406       .  A
C3389      C3394   1.404       .  A
C3389      C3407   1.453       .  S
C3390      C3395   1.483       .  S
C3390      C3391   1.408       .  A
C3391      C3392   1.406       .  A
C3391      C3396   1.452       .  S
C3392      C3393   1.418       .  A
C3392      C3408   1.452       .  S
C3393      C3394   1.419       .  A
C3394      C3397   1.450       .  S
C3395      C3398   1.410       .  A
C3395      C3402   1.410       .  A
C3396      N3413   1.157       .  T
C3397      N3415   1.156       .  T
C3398      C3399   1.402       .  A
C3398      C3403   1.452       .  S
C3399      C3400   1.410       .  A
C3399      C3405   1.451       .  S
C3400      C3401   1.412       .  A
C3401      C3402   1.405       .  A
C3401      C3404   1.451       .  S
C3402      C3406   1.451       .  S
C3403      N3410   1.157       .  T
C3404      N3411   1.157       .  T
C3405      N3409   1.157       .  T
C3406      N3412   1.157       .  T
C3407      N3416   1.157       .  T
C3408      N3414   1.157       .  T
C3417      C3418   1.407       .  A
C3417      C3422   1.404       .  A
C3417      C3435   1.453       .  S
C3418      C3423   1.481       .  S
C3418      C3419   1.407       .  A
C3419      C3420   1.403       .  A
C3419      C3424   1.453       .  S
C3420      C3421   1.420       .  A
C3420      C3436   1.453       .  S
C3421      C3422   1.420       .  A
C3422      C3425   1.452       .  S
C3423      C3426   1.411       .  A
C3423      C3430   1.410       .  A
C3424      N3441   1.157       .  T
C3425      N3443   1.157       .  T
C3426      C3427   1.403       .  A
C3426      C3431   1.452       .  S
C3427      C3428   1.410       .  A
C3427      C3433   1.451       .  S
C3428      C3429   1.412       .  A
C3429      C3430   1.402       .  A
C3429      C3432   1.452       .  S
C3430      C3434   1.452       .  S
C3431      N3438   1.157       .  T
C3432      N3439   1.157       .  T
C3433      N3437   1.157       .  T
C3434      N3440   1.157       .  T
C3435      N3444   1.157       .  T
C3436      N3442   1.157       .  T
C3445      C3446   1.408       .  A
C3445      C3450   1.407       .  A
C3445      C3463   1.451       .  S
C3446      C3451   1.485       .  S
C3446      C3447   1.406       .  A
C3447      C3448   1.406       .  A
C3447      C3452   1.452       .  S
C3448      C3449   1.420       .  A
C3448      C3464   1.452       .  S
C3449      C3450   1.418       .  A
C3450      C3453   1.452       .  S
C3451      C3454   1.410       .  A
C3451      C3458   1.408       .  A
C3452      N3469   1.157       .  T
C3453      N3471   1.157       .  T
C3454      C3455   1.407       .  A
C3454      C3459   1.451       .  S
C3455      C3456   1.413       .  A
C3455      C3461   1.450       .  S
C3456      C3457   1.414       .  A
C3457      C3458   1.405       .  A
C3457      C3460   1.451       .  S
C3458      C3462   1.451       .  S
C3459      N3466   1.157       .  T
C3460      N3467   1.157       .  T
C3461      N3465   1.157       .  T
C3462      N3468   1.157       .  T
C3463      N3472   1.157       .  T
C3464      N3470   1.157       .  T
C3473      C3474   1.409       .  A
C3473      C3478   1.412       .  A
C3473      C3491   1.451       .  S
C3474      C3479   1.505       .  S
C3474      C3475   1.412       .  A
C3475      C3476   1.417       .  A
C3475      C3480   1.450       .  S
C3476      C3477   1.416       .  A
C3476      C3492   1.449       .  S
C3477      C3478   1.420       .  A
C3478      C3481   1.451       .  S
C3479      C3482   1.407       .  A
C3479      C3486   1.405       .  A
C3480      N3497   1.157       .  T
C3481      N3499   1.157       .  T
C3482      C3483   1.418       .  A
C3482      C3487   1.451       .  S
C3483      C3484   1.431       .  A
C3483      C3489   1.452       .  S
C3484      C3485   1.430       .  A
C3485      C3486   1.415       .  A
C3485      C3488   1.446       .  S
C3486      C3490   1.453       .  S
C3487      N3494   1.157       .  T
C3488      N3495   1.157       .  T
C3489      N3493   1.157       .  T
C3490      N3496   1.157       .  T
C3491      N3500   1.157       .  T
C3492      N3498   1.157       .  T
C3501      C3502   1.414       .  A
C3501      C3506   1.422       .  A
C3501      C3519   1.450       .  S
C3502      C3507   1.510       .  S
C3502      C3503   1.408       .  A
C3503      C3504   1.411       .  A
C3503      C3508   1.453       .  S
C3504      C3505   1.425       .  A
C3504      C3520   1.450       .  S
C3505      C3506   1.421       .  A
C3506      C3509   1.449       .  S
C3507      C3510   1.416       .  A
C3507      C3514   1.415       .  A
C3508      N3525   1.157       .  T
C3509      N3527   1.157       .  T
C3510      C3511   1.413       .  A
C3510      C3515   1.450       .  S
C3511      C3512   1.411       .  A
C3511      C3517   1.451       .  S
C3512      C3513   1.412       .  A
C3513      C3514   1.415       .  A
C3513      C3516   1.451       .  S
C3514      C3518   1.450       .  S
C3515      N3522   1.157       .  T
C3516      N3523   1.157       .  T
C3517      N3521   1.158       .  T
C3518      N3524   1.157       .  T
C3519      N3528   1.157       .  T
C3520      N3526   1.156       .  T
C3529      C3530   1.415       .  A
C3529      C3534   1.419       .  A
C3529      C3547   1.449       .  S
C3530      C3535   1.508       .  S
C3530      C3531   1.411       .  A
C3531      C3532   1.412       .  A
C3531      C3536   1.451       .  S
C3532      C3533   1.415       .  A
C3532      C3548   1.448       .  S
C3533      C3534   1.414       .  A
C3534      C3537   1.450       .  S
C3535      C3538   1.410       .  A
C3535      C3542   1.412       .  A
C3536      N3553   1.157       .  T
C3537      N3555   1.157       .  T
C3538      C3539   1.415       .  A
C3538      C3543   1.451       .  S
C3539      C3540   1.423       .  A
C3539      C3545   1.452       .  S
C3540      C3541   1.417       .  A
C3541      C3542   1.417       .  A
C3541      C3544   1.448       .  S
C3542      C3546   1.450       .  S
C3543      N3550   1.157       .  T
C3544      N3551   1.157   1_565  T
C3545      N3549   1.157       .  T
C3546      N3552   1.157       .  T
C3547      N3556   1.157       .  T
C3548      N3554   1.156       .  T
C3557      C3558   1.411       .  A
C3557      C3562   1.412       .  A
C3557      C3575   1.452       .  S
C3558      C3563   1.507       .  S
C3558      C3559   1.414       .  A
C3559      C3560   1.415       .  A
C3559      C3564   1.450       .  S
C3560      C3561   1.415       .  A
C3560      C3576   1.451       .  S
C3561      C3562   1.417       .  A
C3562      C3565   1.449       .  S
C3563      C3566   1.411       .  A
C3563      C3570   1.411       .  A
C3564      N3581   1.157       .  T
C3565      N3583   1.156       .  T
C3566      C3567   1.414       .  A
C3566      C3571   1.452       .  S
C3567      C3568   1.419       .  A
C3567      C3573   1.450       .  S
C3568      C3569   1.418       .  A
C3569      C3570   1.416       .  A
C3569      C3572   1.446       .  S
C3570      C3574   1.452       .  S
C3571      N3578   1.157       .  T
C3572      N3579   1.157       .  T
C3573      N3577   1.157       .  T
C3574      N3580   1.157       .  T
C3575      N3584   1.157       .  T
C3576      N3582   1.157       .  T
