geometry optimzed in LAMMPS
_audit_creation_date              2020-12-01 
_audit_creation_method            'lammps2cif' 
_symmetry_space_group_name_H-M    'P1' 
_symmetry_Int_Tables_number       1 
_symmetry_cell_setting            triclinic 
loop_ 
_symmetry_equiv_pos_as_xyz 
  x,y,z 
_cell_length_a                    36.08822123 
_cell_length_b                    36.24755277963115 
_cell_length_c                    35.99953652978634 
_cell_angle_alpha                 89.72116401690639 
_cell_angle_beta                  89.75702603768403 
_cell_angle_gamma                 90.03734506784677 
loop_ 
_atom_site_label 
_atom_site_type_symbol 
_atom_site_fract_x 
_atom_site_fract_y 
_atom_site_fract_z 
_atom_site_charge 
C1          C  0.12397268  0.84065744  0.53321438     0.02000
C2          C  0.10462527  0.83343336  0.49904098     0.02000
C3          C  0.12347151  0.84241834  0.46547318     0.02000
C4          C  0.15130083  0.87042396  0.46609664     0.02000
C5          C  0.15784491  0.89020528  0.49931034     0.02000
C6          C  0.14884776  0.87222442  0.53333776     0.02000
C7          C  0.14388720  0.07322335  0.46377113     0.02000
C8          C  0.15453589  0.05279728  0.49576595     0.02000
C9          C  0.14886867  0.06962497  0.53088357     0.02000
C10         C  0.12315802  0.09948426  0.53418236     0.02000
C11         C  0.10209120  0.11043743  0.50286084     0.02000
C12         C  0.11715426  0.10228147  0.46726132     0.02000
C13         C  0.92254714  0.10249248  0.46847374     0.02000
C14         C  0.93882590  0.11023151  0.50376118     0.02000
C15         C  0.91647173  0.10366977  0.53587486     0.02000
C16         C  0.88797609  0.07606375  0.53377872     0.02000
C17         C  0.88178138  0.05763453  0.49948376     0.02000
C18         C  0.89212534  0.07713199  0.46678219     0.02000
C19         C  0.89755784  0.87516083  0.53022946     0.02000
C20         C  0.92206150  0.84409666  0.53029878     0.02000
C21         C  0.94122883  0.83512910  0.49698701     0.02000
C22         C  0.92500062  0.84641617  0.46302893     0.02000
C23         C  0.89850677  0.87571477  0.46256876     0.02000
C24         C  0.88986029  0.89426782  0.49632624     0.02000
C25         C  0.48736044  0.10843408  0.10465707     0.02000
C26         C  0.52115463  0.11859675  0.08694951     0.02000
C27         C  0.55429177  0.10873655  0.10568902     0.02000
C28         C  0.55383983  0.07917441  0.13205848     0.02000
C29         C  0.52083938  0.05882361  0.13786080     0.02000
C30         C  0.48712575  0.07724107  0.12944205     0.02000
C31         C  0.55098088  0.07080034  0.87694082     0.02000
C32         C  0.55528123  0.10085901  0.90244274     0.02000
C33         C  0.52374575  0.11281173  0.92260482     0.02000
C34         C  0.48888295  0.10769715  0.90469090     0.02000
C35         C  0.48487502  0.07875234  0.87790296     0.02000
C36         C  0.51542311  0.05588043  0.86987798     0.02000
C37         C  0.49131906  0.87707511  0.12777362     0.02000
C38         C  0.52598201  0.89514329  0.13401453     0.02000
C39         C  0.55858266  0.87400241  0.12710551     0.02000
C40         C  0.55719425  0.84269774  0.10191574     0.02000
C41         C  0.52407407  0.83997688  0.07988631     0.02000
C42         C  0.49011459  0.85048288  0.09800626     0.02000
C43         C  0.48800043  0.87494939  0.86465401     0.02000
C44         C  0.52010889  0.89458084  0.85372162     0.02000
C45         C  0.55482855  0.87752204  0.86226813     0.02000
C46         C  0.55671254  0.85435424  0.89479414     0.02000
C47         C  0.52365520  0.84521451  0.91475040     0.02000
C48         C  0.48927492  0.85092186  0.89622378     0.02000
C49         C  0.13026150  0.44458866  0.86209335     0.02000
C50         C  0.10952227  0.47684760  0.85272177     0.02000
C51         C  0.12553786  0.51152749  0.86248053     0.02000
C52         C  0.15251181  0.51257631  0.89168698     0.02000
C53         C  0.16306926  0.47939918  0.91049004     0.02000
C54         C  0.15635276  0.44534640  0.89211475     0.02000
C55         C  0.11870562  0.44389239  0.12068470     0.02000
C56         C  0.14738070  0.44449877  0.09314581     0.02000
C57         C  0.15669864  0.47801372  0.07486132     0.02000
C58         C  0.14892188  0.51115080  0.09468106     0.02000
C59         C  0.11847581  0.51070948  0.12095072     0.02000
C60         C  0.09869332  0.47695169  0.12761213     0.02000
C61         C  0.91775187  0.50417141  0.13314197     0.02000
C62         C  0.93504413  0.46919931  0.13862080     0.02000
C63         C  0.91441307  0.43690971  0.12916388     0.02000
C64         C  0.88218363  0.43990936  0.10581996     0.02000
C65         C  0.87407090  0.47536049  0.08996164     0.02000
C66         C  0.88618713  0.50719048  0.10943457     0.02000
C67         C  0.92931676  0.51151326  0.88011566     0.02000
C68         C  0.94591670  0.47710678  0.87025206     0.02000
C69         C  0.92501817  0.44488302  0.87865914     0.02000
C70         C  0.89867411  0.44576277  0.90878573     0.02000
C71         C  0.89212241  0.47962581  0.92780879     0.02000
C72         C  0.90151142  0.51305991  0.90888870     0.02000
O73         O  0.23303712  0.90911801  0.69444130    -0.75600
O74         O  0.17961548  0.94260330  0.69208834    -0.54500
C75         C  0.20268393  0.91969429  0.67814639     0.78100
O76         O  0.21316930  0.93538746  0.89738321    -0.60200
O77         O  0.27470149  0.93515528  0.89547500    -0.53200
C78         C  0.24406011  0.92195056  0.90779207     0.70200
O79         O  0.13253558  0.91044547  0.80623154    -0.74800
O80         O  0.12186443  0.93685945  0.74992096    -0.55300
C81         C  0.11329618  0.91472992  0.77682656     0.76200
O82         O  0.32498435  0.90681454  0.78548433    -0.59900
O83         O  0.32961064  0.94372034  0.83602891    -0.53000
C84         C  0.34193831  0.91859952  0.81486221     0.72700
Zr85       Zr  0.26469546  0.92225667  0.75519653     2.54700
O86         O  0.25746337  0.85584828  0.76247307    -0.80500
O87         O  0.31326461  0.91533174  0.70857175    -0.93900
Zr88       Zr  0.18905069  0.92742897  0.83552107     2.64700
O89         O  0.20185237  0.86178074  0.84210699    -0.98800
O90         O  0.13799084  0.91765648  0.87865653    -0.80900
O91         O  0.20028665  0.92410864  0.77066359    -0.84300
O92         O  0.25260863  0.92395581  0.82036301    -2.19000
O93         O  0.32697756  0.05032367  0.78531226    -0.67600
O94         O  0.32988325  0.01701023  0.83919122    -0.52200
C95         C  0.34246326  0.04114294  0.81658938     0.71100
O96         O  0.13538057  0.05412732  0.80255796    -0.60500
O97         O  0.12219659  0.02374200  0.74921884    -0.52500
C98         C  0.11494813  0.04788885  0.77454377     0.72900
O99         O  0.22221695  0.05435319  0.88497115    -0.71900
O100        O  0.27432832  0.02192608  0.89853471    -0.50600
C101        C  0.24985654  0.04684625  0.90568329     0.74300
O102        O  0.23950509  0.04182522  0.68963903    -0.67300
O103        O  0.18074246  0.01827058  0.69244725    -0.54500
C104        C  0.20746148  0.03428936  0.67525768     0.72700
Zr105      Zr  0.26900641  0.03221249  0.75155273     2.77500
O106        O  0.26667053  0.09918311  0.74675234    -0.98000
O107        O  0.31987963  0.02785432  0.70719773    -0.78800
Zr108      Zr  0.19209245  0.03624740  0.82945662     2.70100
O109        O  0.19995157  0.10135098  0.81501023    -0.80100
O110        O  0.14630814  0.04214223  0.87886069    -0.99200
Zr111      Zr  0.17491645  0.97984229  0.74585627     2.21500
Zr112      Zr  0.27660539  0.98024964  0.84461317     2.11100
O113        O  0.25569457  0.03561817  0.81620314    -2.47900
O114        O  0.20423449  0.03509229  0.76536305    -0.79900
O115        O  0.29131868  0.97724613  0.77957251    -0.72100
O116        O  0.16269721  0.98161784  0.81002880    -2.33000
O117        O  0.24001085  0.97740545  0.73000202    -2.29200
O118        O  0.21329843  0.98268187  0.85946463    -0.73800
H119        H  0.26431981  0.90308094  0.83216169     0.78200
H120        H  0.13640561  0.98249998  0.81518137     0.79200
H121        H  0.26727140  0.05710987  0.82688238     0.81500
H122        H  0.24375234  0.97623129  0.70350582     0.79100
H123        H  0.13415195  0.94200476  0.89041706     0.42100
H124        H  0.12489115  0.02728583  0.87050816     0.41100
H125        H  0.18973664  0.10453321  0.78971625     0.40800
H126        H  0.28219104  0.10508492  0.72476170     0.38700
H127        H  0.31232681  0.00805745  0.68996175     0.41800
H128        H  0.31078177  0.93732327  0.69237177     0.36600
H129        H  0.23530898  0.84969629  0.74760028     0.42700
H130        H  0.20704050  0.85333281  0.81652041     0.39100
H131        H  0.24105370  0.10466420  0.73869559     0.44100
H132        H  0.30521579  0.89443110  0.69294368     0.42800
H133        H  0.22582948  0.85945749  0.85506459     0.42900
H134        H  0.15647225  0.02779625  0.89995130     0.43300
O135        O  0.09704962  0.18666037  0.69542693    -0.75600
O136        O  0.05728766  0.13796408  0.69101118    -0.54500
C137        C  0.08431226  0.15745687  0.67901188     0.78100
O138        O  0.06664451  0.16928118  0.89470047    -0.60200
O139        O  0.06900829  0.23067976  0.89537902    -0.53200
C140        C  0.08069900  0.19930456  0.90678038     0.70200
O141        O  0.07321699  0.08309224  0.80746034    -0.74800
O142        O  0.06641687  0.08421447  0.74562000    -0.55300
C143        C  0.08221937  0.07197230  0.77501519     0.76200
O144        O  0.09962832  0.28131355  0.78296423    -0.59900
O145        O  0.06475878  0.28618371  0.83537913    -0.53000
C146        C  0.08942751  0.29818974  0.81307480     0.72700
Zr147      Zr  0.08043783  0.22212934  0.75270101     2.54700
O148        O  0.14790425  0.22120168  0.75309600    -0.80500
O149        O  0.07768347  0.26756284  0.70269896    -0.93900
Zr150      Zr  0.07592746  0.14505080  0.83250320     2.64700
O151        O  0.14258685  0.15380531  0.82830282    -0.98800
O152        O  0.10338226  0.10324110  0.87721628    -0.80900
O153        O  0.07811383  0.15783654  0.76797760    -0.84300
O154        O  0.08055516  0.20874430  0.81777370    -2.19000
O155        O  0.95465239  0.28686919  0.78738752    -0.67600
O156        O  0.99193342  0.29027587  0.83818834    -0.52200
C157        C  0.96632566  0.30281144  0.81750442     0.71100
O158        O  0.94514751  0.10123323  0.79914899    -0.60500
O159        O  0.97619186  0.08260564  0.74789536    -0.52500
C160        C  0.94961789  0.07946541  0.77168984     0.72900
O161        O  0.97564987  0.17526078  0.89592335    -0.71900
O162        O  0.97976772  0.23621028  0.89542987    -0.50600
C163        C  0.96424891  0.20652199  0.90725486     0.74300
O164        O  0.94997102  0.19427095  0.69533350    -0.67300
O165        O  0.98150955  0.13981201  0.69343830    -0.54500
C166        C  0.95804392  0.16262308  0.68024181     0.72700
Zr167      Zr  0.96970238  0.22815711  0.75318769     2.77500
O168        O  0.90229011  0.22961533  0.75516850    -0.98000
O169        O  0.97376259  0.27563310  0.70525867    -0.78800
Zr170      Zr  0.96700380  0.15276455  0.83338170     2.70100
O171        O  0.90452006  0.17643596  0.83132726    -0.80100
O172        O  0.95023963  0.10292175  0.87558284    -0.99200
Zr173      Zr  0.02064675  0.13424515  0.74552721     2.21500
Zr174      Zr  0.02564954  0.23518361  0.84409080     2.11100
O175        O  0.96848850  0.21584287  0.81836801    -2.47900
O176        O  0.96698546  0.16429428  0.76883717    -0.79900
O177        O  0.02644759  0.24954273  0.77891604    -0.72100
O178        O  0.01878396  0.12106166  0.80998192    -2.33000
O179        O  0.02363402  0.19867130  0.72894107    -2.29200
O180        O  0.02306191  0.17208406  0.85961185    -0.73800
H181        H  0.10233477  0.21927666  0.82906444     0.78200
H182        H  0.01358282  0.09547854  0.81556198     0.79200
H183        H  0.94817214  0.22868819  0.83008579     0.81500
H184        H  0.02365543  0.20167146  0.70228401     0.79100
H185        H  0.08206481  0.08948390  0.88779396     0.42100
H186        H  0.95994827  0.08019382  0.86391758     0.41100
H187        H  0.89467471  0.16744324  0.80737942     0.40800
H188        H  0.89607590  0.23732857  0.78079539     0.38700
H189        H  0.98871182  0.29551347  0.71657197     0.41800
H190        H  0.06464219  0.28892993  0.71370862     0.36600
H191        H  0.15519301  0.22837882  0.72751557     0.42700
H192        H  0.14695289  0.16410260  0.80315916     0.39100
H193        H  0.89554889  0.25111418  0.73953889     0.44100
H194        H  0.05981534  0.25731260  0.68468316     0.42800
H195        H  0.14804791  0.17441229  0.84537999     0.42900
H196        H  0.96643942  0.10620905  0.89743218     0.43300
O197        O  0.09117035  0.76607577  0.30017376    -0.75600
O198        O  0.05323066  0.81621693  0.30430364    -0.54500
C199        C  0.07882294  0.79540862  0.31705681     0.78100
O200        O  0.06579323  0.78313982  0.09901706    -0.60200
O201        O  0.06548739  0.72155411  0.10076324    -0.53200
C202        C  0.07876238  0.75208307  0.08825074     0.70200
O203        O  0.07261618  0.87004206  0.18604836    -0.74800
O204        O  0.06493190  0.86759425  0.24807574    -0.55300
C205        C  0.08160660  0.87990455  0.21889469     0.76200
O206        O  0.09346130  0.67165419  0.20940132    -0.59900
O207        O  0.05622058  0.66585268  0.15877961    -0.53000
C208        C  0.08180665  0.65436150  0.17998874     0.72700
Zr209      Zr  0.07700875  0.73164794  0.24103464     2.54700
O210        O  0.14424854  0.73660534  0.23824940    -0.80500
O211        O  0.07823887  0.68616516  0.29094910    -0.93900
Zr212      Zr  0.06983177  0.80797184  0.16150210     2.64700
O213        O  0.13405809  0.79487285  0.17572167    -0.98800
O214        O  0.09868924  0.84835544  0.11581421    -0.80900
O215        O  0.07321204  0.79578163  0.22582415    -0.84300
O216        O  0.07505816  0.74442179  0.17585283    -2.19000
O217        O  0.95865963  0.66269213  0.21659680    -0.67600
O218        O  0.98501825  0.66280507  0.15893542    -0.52200
C219        C  0.96698953  0.64707843  0.18531549     0.71100
O220        O  0.94418761  0.85899245  0.19331686    -0.60500
O221        O  0.97528346  0.87333113  0.24606913    -0.52500
C222        C  0.95116376  0.88034968  0.22072792     0.72900
O223        O  0.97477173  0.77827425  0.10307397    -0.71900
O224        O  0.97655924  0.71734097  0.09953750    -0.50600
C225        C  0.96268676  0.74811119  0.08931769     0.74300
O226        O  0.95429545  0.75500248  0.30514261    -0.67300
O227        O  0.97676479  0.81391044  0.30216211    -0.54500
C228        C  0.96053302  0.78727492  0.31908976     0.72700
Zr229      Zr  0.96701039  0.72492393  0.24449012     2.77500
O230        O  0.89967964  0.72069720  0.24569341    -0.98000
O231        O  0.97179569  0.67875791  0.29356510    -0.78800
Zr232      Zr  0.95983843  0.80067393  0.16504931     2.70100
O233        O  0.89681020  0.77726133  0.16661436    -0.80100
O234        O  0.93044043  0.84677941  0.12647012    -0.84800
Zr235      Zr  0.01652992  0.81957299  0.24981271     2.21500
Zr236      Zr  0.01953142  0.71822103  0.15144583     2.11100
O237        O  0.96245432  0.73717060  0.17952381    -2.47900
O238        O  0.96166146  0.78905657  0.22961015    -0.79900
O239        O  0.02270228  0.70405897  0.21649448    -0.72100
O240        O  0.01334603  0.83220990  0.18543075    -2.33000
O241        O  0.02101277  0.75520722  0.26622124    -2.29200
O242        O  0.01557428  0.78170626  0.13638234    -0.73800
H243        H  0.09654452  0.73381408  0.16393459     0.78200
H244        H  0.01045465  0.85806327  0.17962614     0.79200
H245        H  0.94186467  0.72392213  0.16889813     0.81500
H246        H  0.02210269  0.75190515  0.29279012     0.79100
H247        H  0.07851481  0.86496311  0.10759810     0.42100
H248        H  0.94751250  0.84958653  0.10506031     0.41100
H249        H  0.88593619  0.78783669  0.18949529     0.40800
H250        H  0.89456825  0.69547919  0.25512115     0.38700
H251        H  0.99628254  0.68331085  0.30495947     0.41800
H252        H  0.10351480  0.67561502  0.28985853     0.36600
H253        H  0.15112314  0.72615815  0.21381555     0.42700
H254        H  0.14328762  0.78095272  0.15401655     0.39100
H255        H  0.89190200  0.73708756  0.26621654     0.44100
H256        H  0.06189668  0.66604504  0.28228569     0.42800
H257        H  0.14605100  0.81931895  0.17409546     0.42900
H258        H  0.90828559  0.83425580  0.11664768     0.43300
O259        O  0.22725402  0.86122069  0.06445641    -0.75600
O260        O  0.27994098  0.87734157  0.03559367    -0.54500
C261        C  0.25584595  0.88173638  0.06140432     0.78100
O262        O  0.24024559  0.67297587  0.06561965    -0.60200
O263        O  0.18268851  0.67007899  0.03952641    -0.53200
C264        C  0.20937618  0.65601231  0.05825961     0.70200
O265        O  0.32659447  0.76972574  0.06618303    -0.74800
O266        O  0.32970889  0.82140227  0.02977803    -0.55300
C267        C  0.34281740  0.79984763  0.05469329     0.76200
O268        O  0.13057373  0.78383753  0.06800746    -0.59900
O269        O  0.12221388  0.72711389  0.04257562    -0.53000
C270        C  0.11222864  0.75383911  0.06415277     0.72700
Zr271      Zr  0.18772985  0.81175862  0.04781048     2.54700
O272        O  0.18573592  0.81860005  0.11439806    -0.80500
O273        O  0.14232639  0.86124568  0.04292478    -0.93900
Zr274      Zr  0.26746254  0.73559353  0.05216219     2.64700
O275        O  0.26242995  0.73939129  0.11947763    -0.98800
O276        O  0.31717605  0.69040686  0.05553627    -0.80900
O277        O  0.25190666  0.79943160  0.04936372    -0.84300
O278        O  0.20248548  0.74839173  0.05367484    -2.19000
O279        O  0.12693326  0.78506294  0.95758489    -0.67600
O280        O  0.12333522  0.72417749  0.95714604    -0.52200
C281        C  0.11313325  0.75553187  0.94434070     0.71100
O282        O  0.32853816  0.76294886  0.92887948    -0.60500
O283        O  0.32583952  0.82178667  0.95067948    -0.52500
C284        C  0.34266832  0.79547875  0.93427456     0.72900
O285        O  0.23549581  0.67434904  0.92408667    -0.71900
O286        O  0.18264599  0.67067784  0.95882434    -0.50600
C287        C  0.20504975  0.65811262  0.93413361     0.74300
O288        O  0.21288861  0.86869935  0.92529754    -0.67300
O289        O  0.26955979  0.87816580  0.95103983    -0.54500
C290        C  0.24248043  0.88779598  0.92999509     0.72700
Zr291      Zr  0.18737172  0.80826319  0.93932207     2.77500
O292        O  0.18369260  0.79031670  0.87430710    -0.98000
O293        O  0.14210542  0.85016779  0.91335099    -0.78800
Zr294      Zr  0.26707205  0.73285160  0.94138277     2.70100
O295        O  0.26753231  0.73717839  0.87386324    -0.80100
O296        O  0.31208216  0.68277449  0.94179713    -0.99200
Zr297      Zr  0.27525938  0.82502659  0.99272243     2.21500
Zr298      Zr  0.17592377  0.72236707  0.99943100     2.11100
O299        O  0.20193135  0.74463417  0.94169663    -2.47900
O300        O  0.25211400  0.79690720  0.93759007    -0.79900
O301        O  0.16102798  0.78579242  0.99526927    -0.72100
O302        O  0.29150942  0.76058857  0.99571864    -2.33000
O303        O  0.21085961  0.83840027  0.99253295    -2.29200
O304        O  0.24122503  0.70923552  0.99796611    -0.73800
H305        H  0.19147199  0.73809086  0.07593242     0.78200
H306        H  0.31802928  0.75722548  0.99604013     0.79200
H307        H  0.19044778  0.73230184  0.92104339     0.81500
H308        H  0.20595367  0.86458006  0.99267978     0.79100
H309        H  0.32393106  0.68575180  0.02929537     0.42100
H310        H  0.33299746  0.69217766  0.95673194     0.41100
H311        H  0.24622635  0.72199506  0.86583585     0.40800
H312        H  0.20862111  0.78091701  0.86793598     0.38700
H313        H  0.13101994  0.86227782  0.93535217     0.41800
H314        H  0.12671928  0.85429582  0.02150519     0.36600
H315        H  0.20560401  0.80195691  0.12322990     0.42700
H316        H  0.28505012  0.72698725  0.12871534     0.39100
H317        H  0.16724086  0.76848318  0.87351281     0.44100
H318        H  0.15645047  0.88304411  0.03415473     0.42800
H319        H  0.26643086  0.76581502  0.12503730     0.42900
H320        H  0.30072478  0.66336451  0.95760775     0.43300
O321        O  0.10397535  0.08986596  0.19561050    -0.75600
O322        O  0.07078243  0.07508980  0.24759975    -0.54500
C323        C  0.09566254  0.06841669  0.22266381     0.78100
O324        O  0.08642682  0.28515439  0.21347041    -0.60200
O325        O  0.06158288  0.28185004  0.15538433    -0.53200
C326        C  0.07868784  0.29916207  0.18110767     0.70200
O327        O  0.08884119  0.19476693  0.30716022    -0.74800
O328        O  0.06779067  0.13530157  0.30613960    -0.55300
C329        C  0.08274930  0.16274933  0.32260003     0.76200
O330        O  0.10350856  0.17453717  0.11031530    -0.59900
O331        O  0.06739767  0.22427260  0.09657476    -0.53000
C332        C  0.09387925  0.20130183  0.08924765     0.72700
Zr333      Zr  0.08474803  0.14608227  0.16721333     2.54700
O334        O  0.15108743  0.15009251  0.17557716    -0.80500
O335        O  0.08264583  0.09994190  0.11827368    -0.93900
Zr336      Zr  0.07790350  0.22339095  0.24414713     2.64700
O337        O  0.14536134  0.22348562  0.24211379    -0.98800
O338        O  0.07916712  0.27059210  0.29200317    -0.80900
O339        O  0.08348144  0.15913439  0.23140305    -0.84300
O340        O  0.08098586  0.20971828  0.17930319    -2.19000
O341        O  0.95551622  0.16490533  0.10720993    -0.67600
O342        O  0.97973066  0.22222715  0.09799806    -0.52200
C343        C  0.95801803  0.19524721  0.08892348     0.71100
O344        O  0.95616212  0.18269061  0.30387971    -0.60500
O345        O  0.99330914  0.13195267  0.30825470    -0.52500
C346        C  0.96873366  0.15367053  0.32142427     0.72900
O347        O  0.95160801  0.27419958  0.21012393    -0.71900
O348        O  0.98300258  0.27839195  0.15507231    -0.50600
C349        C  0.95996623  0.29078896  0.17907403     0.74300
O350        O  0.97335648  0.07646994  0.19246392    -0.67300
O351        O  0.98016348  0.08103876  0.25429131    -0.54500
C352        C  0.96366233  0.06808830  0.22558454     0.72700
Zr353      Zr  0.97658975  0.13693879  0.16416527     2.77500
O354        O  0.91019912  0.13148059  0.17057905    -0.98000
O355        O  0.97815905  0.09266104  0.11358075    -0.78800
Zr356      Zr  0.96792186  0.21472023  0.24207410     2.70100
O357        O  0.90103932  0.20754945  0.23716418    -0.80100
O358        O  0.96087545  0.26107136  0.29031653    -0.99200
Zr359      Zr  0.02912830  0.12853971  0.25325615     2.21500
Zr360      Zr  0.02433901  0.22763898  0.15040992     2.11100
O361        O  0.97020137  0.20046629  0.17730538    -2.47900
O362        O  0.97207524  0.15055819  0.22831978    -0.79900
O363        O  0.02963242  0.16452711  0.13756430    -0.72100
O364        O  0.02423529  0.19325313  0.26753018    -2.33000
O365        O  0.03240889  0.11478185  0.18944545    -2.29200
O366        O  0.02164485  0.24300558  0.21565228    -0.73800
H367        H  0.10187877  0.22225209  0.16806669     0.78200
H368        H  0.02298994  0.19746844  0.29392355     0.79200
H369        H  0.94812518  0.21002400  0.16564417     0.81500
H370        H  0.03560060  0.08881757  0.18464939     0.79100
H371        H  0.05639748  0.28522125  0.28782126     0.42100
H372        H  0.98003850  0.27980737  0.28449378     0.41100
H373        H  0.89695988  0.18053795  0.23729547     0.40800
H374        H  0.90080609  0.15672188  0.16589571     0.38700
H375        H  0.99638104  0.07375799  0.12130931     0.41800
H376        H  0.06134957  0.10710300  0.10256775     0.36600
H377        H  0.15473938  0.14923671  0.20279285     0.42700
H378        H  0.15254018  0.19830291  0.25002231     0.39100
H379        H  0.90321622  0.11729387  0.14829763     0.44100
H380        H  0.07467421  0.07671528  0.13045684     0.42800
H381        H  0.15182963  0.22469897  0.21538747     0.42900
H382        H  0.93706150  0.27342528  0.28474580     0.43300
O383        O  0.13846150  0.89426193  0.19462611    -0.75600
O384        O  0.12124956  0.92786187  0.24505838    -0.54500
C385        C  0.11563780  0.90243072  0.22060524     0.78100
O386        O  0.33094759  0.90675214  0.21990193    -0.60200
O387        O  0.33677595  0.93942554  0.16544902    -0.53200
C388        C  0.34904269  0.91703756  0.19054723     0.70200
O389        O  0.23902654  0.90949739  0.30855079    -0.74800
O390        O  0.17933851  0.92945166  0.30338565    -0.55300
C391        C  0.20583106  0.91448732  0.32145419     0.76200
O392        O  0.23143178  0.90206381  0.11521045    -0.59900
O393        O  0.28221193  0.93350470  0.09771564    -0.53000
C394        C  0.25782173  0.90815463  0.09252456     0.72700
Zr395      Zr  0.19688817  0.91344529  0.16946528     2.54700
O396        O  0.20891979  0.84851301  0.18165152    -0.80500
O397        O  0.15386686  0.90181173  0.11896459    -0.93900
Zr398      Zr  0.27077690  0.92289576  0.24849236     2.64700
O399        O  0.27453265  0.85612846  0.25513270    -0.98800
O400        O  0.31634040  0.93675652  0.29610399    -0.80900
O401        O  0.20701909  0.91577058  0.23365026    -0.84300
O402        O  0.26028981  0.91849542  0.18332337    -2.19000
O403        O  0.21498806  0.02253737  0.09924196    -0.67600
O404        O  0.27691146  0.02106082  0.10290273    -0.52200
C405        C  0.24684272  0.03536671  0.09013552     0.71100
O406        O  0.22745263  0.04631709  0.30045146    -0.60500
O407        O  0.17693918  0.00851936  0.30471231    -0.52500
C408        C  0.19758639  0.03442696  0.31691370     0.72900
O409        O  0.32554581  0.04388784  0.21579065    -0.71900
O410        O  0.32507989  0.02103812  0.15707542    -0.50600
C411        C  0.34074691  0.03810204  0.18363816     0.74300
O412        O  0.12643789  0.02391507  0.18897836    -0.67300
O413        O  0.12759418  0.01753855  0.25103039    -0.54500
C414        C  0.11689998  0.03421683  0.22156632     0.72700
Zr415      Zr  0.18772226  0.02170046  0.16110740     2.77500
O416        O  0.19251928  0.08849923  0.16103052    -0.98000
O417        O  0.13891551  0.03273971  0.11605001    -0.78800
Zr418      Zr  0.26250396  0.03148426  0.24209251     2.70100
O419        O  0.25595444  0.09786069  0.23376056    -0.80100
O420        O  0.30779937  0.04037664  0.29120256    -0.99200
Zr421      Zr  0.17509763  0.96997130  0.25159279     2.21500
Zr422      Zr  0.28020519  0.97395259  0.15293604     2.11100
O423        O  0.25098007  0.02839991  0.17695635    -2.47900
O424        O  0.19870494  0.02627870  0.22572148    -0.79900
O425        O  0.21649513  0.96769861  0.13835521    -0.72100
O426        O  0.23913304  0.97622199  0.26902713    -2.33000
O427        O  0.16417983  0.96623030  0.18712020    -2.29200
O428        O  0.29216171  0.97770016  0.21862644    -0.73800
H429        H  0.27357794  0.89754604  0.17352710     0.78200
H430        H  0.24186643  0.97768976  0.29563170     0.79200
H431        H  0.26085280  0.05040746  0.16541091     0.81500
H432        H  0.13847161  0.96229783  0.18095576     0.79100
H433        H  0.33233377  0.95600878  0.28479364     0.42100
H434        H  0.30196356  0.06491620  0.30167212     0.41100
H435        H  0.27042616  0.10363298  0.21103745     0.40800
H436        H  0.19886398  0.09461401  0.18698168     0.38700
H437        H  0.13959985  0.01096932  0.09955317     0.41800
H438        H  0.16440027  0.91510035  0.09727425     0.36600
H439        H  0.23421637  0.84400740  0.17197955     0.42700
H440        H  0.24879456  0.84824111  0.26058569     0.39100
H441        H  0.21527548  0.09428782  0.14673854     0.44100
H442        H  0.13155254  0.91637793  0.12537989     0.42800
H443        H  0.27942626  0.84705519  0.22968916     0.42900
H444        H  0.30055777  0.02261129  0.31091218     0.43300
O445        O  0.32576984  0.19472542  0.07139323    -0.75600
O446        O  0.32700190  0.13868340  0.04322213    -0.54500
C447        C  0.34073093  0.16259765  0.06523580     0.78100
O448        O  0.12930025  0.17240909  0.04315353    -0.60200
O449        O  0.12515575  0.23306690  0.03867774    -0.53200
C450        C  0.11597350  0.20292687  0.05479298     0.70200
O451        O  0.21826642  0.09067210  0.07420593    -0.74800
O452        O  0.27236226  0.07827191  0.04389295    -0.55300
C453        C  0.24653191  0.07004203  0.06763421     0.76200
O454        O  0.23422103  0.28693093  0.06048471    -0.59900
O455        O  0.18262464  0.28720390  0.02432866    -0.53000
C456        C  0.20386971  0.30191092  0.04820753     0.72700
Zr457      Zr  0.26802582  0.22747034  0.04923984     2.54700
O458        O  0.26931584  0.23632797  0.11623445    -0.80500
O459        O  0.31632193  0.27332205  0.03842803    -0.93900
Zr460      Zr  0.19108720  0.15023269  0.05809722     2.64700
O461        O  0.19530465  0.17221470  0.12160317    -0.98800
O462        O  0.15051131  0.10839717  0.09119082    -0.80900
O463        O  0.25514588  0.16312530  0.05534579    -0.84300
O464        O  0.20332198  0.21392689  0.05175336    -2.19000
O465        O  0.23693946  0.28112133  0.92704364    -0.67600
O466        O  0.17845089  0.28133843  0.95101524    -0.52200
C467        C  0.20522589  0.29689136  0.93351552     0.71100
O468        O  0.21699097  0.07839159  0.94986646    -0.60500
O469        O  0.27868080  0.08280727  0.95445768    -0.52500
C470        C  0.24949119  0.06945320  0.93932244     0.72900
O471        O  0.13109451  0.16595388  0.92800701    -0.71900
O472        O  0.12271767  0.22340663  0.95193376    -0.50600
C473        C  0.11308245  0.19627555  0.93112006     0.74300
O474        O  0.32769455  0.19281188  0.92829618    -0.67300
O475        O  0.33129534  0.13950684  0.96223387    -0.54500
C476        C  0.34515007  0.16403184  0.94022428     0.72700
Zr477      Zr  0.26514351  0.21874056  0.93876883     2.77500
O478        O  0.25728037  0.20686631  0.87277547    -0.98000
O479        O  0.31130731  0.26503899  0.92222162    -0.78800
Zr480      Zr  0.18858640  0.13876736  0.94864945     2.70100
O481        O  0.19747261  0.13167730  0.88243443    -0.80100
O482        O  0.14061347  0.09131511  0.94837869    -0.99200
Zr483      Zr  0.27725857  0.13212556  0.00115176     2.21500
Zr484      Zr  0.17575294  0.23059963  0.99331352     2.11100
O485        O  0.20118426  0.20260571  0.93948762    -2.47900
O486        O  0.25229831  0.15403166  0.94399445    -0.79900
O487        O  0.24016152  0.24695690  0.99236657    -0.72100
O488        O  0.21326859  0.11823937  0.00585130    -2.33000
O489        O  0.29134321  0.19711266  0.99582971    -2.29200
O490        O  0.16215916  0.16706030  0.00130045    -0.73800
H491        H  0.19174480  0.22770611  0.07151306     0.78200
H492        H  0.20778186  0.09249849  0.00979093     0.79200
H493        H  0.18948087  0.21167710  0.91716274     0.81500
H494        H  0.31773806  0.20133842  0.99606009     0.79100
H495        H  0.13999770  0.09287040  0.07127429     0.42100
H496        H  0.14719153  0.07443698  0.96902848     0.41100
H497        H  0.22462330  0.13321928  0.87870209     0.40800
H498        H  0.26587276  0.22980126  0.86040729     0.38700
H499        H  0.32211474  0.27252728  0.94627438     0.41800
H500        H  0.33943729  0.25893297  0.03536905     0.36600
H501        H  0.24449872  0.24611029  0.12263689     0.42700
H502        H  0.22111504  0.18091328  0.12435248     0.39100
H503        H  0.27661966  0.18842304  0.86680274     0.44100
H504        H  0.31916774  0.28576725  0.06267631     0.42800
H505        H  0.17980846  0.19467255  0.12310899     0.42900
H506        H  0.11777238  0.10362605  0.95722485     0.43300
O507        O  0.90637949  0.05727500  0.20233156    -0.75600
O508        O  0.92364139  0.01917321  0.24955922    -0.54500
C509        C  0.92907605  0.04678768  0.22742254     0.78100
O510        O  0.71235847  0.03926534  0.21667901    -0.60200
O511        O  0.71508840  0.01701574  0.15758163    -0.53200
C512        C  0.69809883  0.03292693  0.18426514     0.70200
O513        O  0.80372924  0.04186125  0.30755595    -0.74800
O514        O  0.86243684  0.01854904  0.30479534    -0.55300
C515        C  0.83618522  0.03558541  0.32156380     0.76200
O516        O  0.82487295  0.05469729  0.11242866    -0.59900
O517        O  0.77341410  0.02152675  0.09786249    -0.53000
C518        C  0.79809955  0.04638962  0.09094804     0.72700
Zr519      Zr  0.85164250  0.03846181  0.17039919     2.54700
O520        O  0.83909546  0.10349708  0.18061398    -0.80500
O521        O  0.90131742  0.04624801  0.12504903    -0.93900
Zr522      Zr  0.77373733  0.02862696  0.24678676     2.64700
O523        O  0.77249720  0.09573590  0.24862107    -0.98800
O524        O  0.72565377  0.02189216  0.29395068    -0.80900
O525        O  0.83838891  0.03375043  0.23403535    -0.84300
O526        O  0.78759308  0.03496591  0.18233222    -2.19000
O527        O  0.83078562  0.93240964  0.09935885    -0.67600
O528        O  0.76904746  0.93418929  0.10201096    -0.52200
C529        C  0.79909098  0.91978969  0.08979703     0.71100
O530        O  0.81254546  0.90036296  0.29872386    -0.60500
O531        O  0.86312023  0.93751029  0.30333471    -0.52500
C532        C  0.84208473  0.91178555  0.31564989     0.72900
O533        O  0.72123826  0.90440010  0.20812786    -0.71900
O534        O  0.71632527  0.94145349  0.15698927    -0.50600
C535        C  0.70435172  0.91601951  0.17852610     0.74300
O536        O  0.92007274  0.92521535  0.18735637    -0.67300
O537        O  0.91644419  0.92993911  0.24959373    -0.54500
C538        C  0.92894939  0.91444186  0.21997364     0.72700
Zr539      Zr  0.85883755  0.92982442  0.16078473     2.77500
O540        O  0.85612011  0.86297478  0.16371409    -0.98000
O541        O  0.90466638  0.91883757  0.11233386    -0.78800
Zr542      Zr  0.78074410  0.91951883  0.23992727     2.70100
O543        O  0.78340209  0.85265787  0.23438245    -0.80100
O544        O  0.73435187  0.91930466  0.28920638    -0.99200
Zr545      Zr  0.86878036  0.97858647  0.25234813     2.21500
Zr546      Zr  0.76885026  0.97994618  0.15184139     2.11100
O547        O  0.79503901  0.92382658  0.17516494    -2.47900
O548        O  0.84516256  0.92363127  0.22498283    -0.79900
O549        O  0.83252595  0.98512312  0.13823804    -0.72100
O550        O  0.80393540  0.97407016  0.26776784    -2.33000
O551        O  0.88234999  0.98429116  0.18844424    -2.29200
O552        O  0.75325555  0.97437966  0.21645062    -0.73800
H553        H  0.77528689  0.05635356  0.17206509     0.78200
H554        H  0.80037792  0.97212686  0.29430581     0.79200
H555        H  0.78464240  0.90262298  0.16285919     0.81500
H556        H  0.90843318  0.98786559  0.18360219     0.79100
H557        H  0.73341232  0.00024869  0.30887870     0.42100
H558        H  0.71349631  0.93393148  0.27911584     0.41100
H559        H  0.80957725  0.84634373  0.23953615     0.40800
H560        H  0.87093012  0.85649246  0.18586154     0.38700
H561        H  0.90568577  0.94220433  0.09799195     0.41800
H562        H  0.89706956  0.02630121  0.10684622     0.36600
H563        H  0.84605293  0.10783209  0.20681119     0.42700
H564        H  0.75520976  0.10302769  0.22861377     0.39100
H565        H  0.83036960  0.85716716  0.17117571     0.44100
H566        H  0.92443834  0.03881282  0.13771818     0.42800
H567        H  0.75908560  0.10155748  0.27191741     0.42900
H568        H  0.72501739  0.89362303  0.28996347     0.43300
O569        O  0.83115094  0.07852161  0.04659972    -0.75600
O570        O  0.76917529  0.08050031  0.04149260    -0.54500
C571        C  0.79875412  0.06850051  0.05696785     0.78100
O572        O  0.80211154  0.27627260  0.07150823    -0.60200
O573        O  0.85506845  0.28628128  0.03760021    -0.53200
C574        C  0.82979225  0.29637795  0.06101124     0.70200
O575        O  0.71868425  0.18215704  0.07103137    -0.74800
O576        O  0.71430540  0.13263003  0.03280198    -0.55300
C577        C  0.70167380  0.15327075  0.05849116     0.76200
O578        O  0.92030491  0.16569335  0.04524352    -0.59900
O579        O  0.91855570  0.22764576  0.04451665    -0.53000
C580        C  0.93171117  0.19703726  0.05712427     0.72700
Zr581      Zr  0.85768236  0.14001866  0.04663907     2.54700
O582        O  0.85022040  0.14642697  0.11318892    -0.80500
O583        O  0.90114051  0.09161463  0.06277777    -0.93900
Zr584      Zr  0.77809177  0.21453904  0.05662384     2.64700
O585        O  0.78975735  0.20461430  0.12249215    -0.98800
O586        O  0.72774632  0.25711678  0.07008510    -0.80900
O587        O  0.79323883  0.15103640  0.05189722    -0.84300
O588        O  0.84335838  0.20336411  0.05399284    -2.19000
O589        O  0.90859027  0.17864992  0.92042337    -0.67600
O590        O  0.92213129  0.22875043  0.95609543    -0.52200
C591        C  0.92961635  0.20557331  0.92971678     0.71100
O592        O  0.71589184  0.19196216  0.92703108    -0.60500
O593        O  0.71454764  0.13730685  0.95854244    -0.52500
C594        C  0.70090579  0.16035095  0.93551680     0.72900
O595        O  0.80408351  0.28693366  0.93701511    -0.71900
O596        O  0.86372796  0.28290566  0.95731582    -0.50600
C597        C  0.83709196  0.30045149  0.94189528     0.74300
O598        O  0.82242577  0.09097292  0.91884227    -0.67300
O599        O  0.77021208  0.07734152  0.95191077    -0.54500
C600        C  0.79439103  0.07012814  0.92650468     0.72700
Zr601      Zr  0.85164644  0.14873363  0.93780326     2.77500
O602        O  0.83906468  0.15832232  0.87280359    -0.98000
O603        O  0.90101167  0.10345822  0.93440273    -0.78800
Zr604      Zr  0.77404427  0.22502886  0.94623527     2.70100
O605        O  0.77563469  0.22963615  0.87874294    -0.80100
O606        O  0.72425823  0.26986685  0.95307163    -0.99200
Zr607      Zr  0.76795716  0.12976339  0.99501812     2.21500
Zr608      Zr  0.86768766  0.23219641  0.99902929     2.11100
O609        O  0.83877041  0.21230981  0.94285297    -2.47900
O610        O  0.78779795  0.16096239  0.94035242    -0.79900
O611        O  0.88124186  0.16873919  0.99262838    -0.72100
O612        O  0.75185936  0.19385607  0.00012284    -2.33000
O613        O  0.83190736  0.11712738  0.99076576    -2.29200
O614        O  0.80219600  0.24449323  0.00258532    -0.73800
H615        H  0.85503028  0.21310002  0.07597414     0.78200
H616        H  0.72533977  0.19721097  0.00112961     0.79200
H617        H  0.84934755  0.22489082  0.92158414     0.81500
H618        H  0.83739355  0.09151674  0.98603535     0.79100
H619        H  0.71748218  0.26348753  0.04541309     0.42100
H620        H  0.70366085  0.25599731  0.96486756     0.41100
H621        H  0.80063967  0.23926866  0.87275475     0.40800
H622        H  0.84708728  0.18392870  0.86758629     0.38700
H623        H  0.91867664  0.11077122  0.95401713     0.41800
H624        H  0.91783924  0.10331762  0.08089600     0.36600
H625        H  0.82536968  0.13590618  0.11818904     0.42700
H626        H  0.80729187  0.22440689  0.12945772     0.39100
H627        H  0.85771570  0.14224506  0.86109377     0.44100
H628        H  0.91651251  0.08830493  0.04018978     0.42800
H629        H  0.76621526  0.21143768  0.13487891     0.42900
H630        H  0.73299624  0.28675736  0.97271953     0.43300
O631        O  0.07000085  0.88054170  0.80945890    -0.75600
O632        O  0.06637600  0.87692413  0.74735500    -0.54500
C633        C  0.08057808  0.89044162  0.77698509     0.78100
O634        O  0.09769141  0.67865880  0.78669299    -0.60200
O635        O  0.07134581  0.67558360  0.84424435    -0.53200
C636        C  0.09018640  0.66161471  0.81747245     0.70200
O637        O  0.10026271  0.77048970  0.70149530    -0.74800
O638        O  0.06237255  0.82035071  0.69317313    -0.55300
C639        C  0.08786576  0.79793428  0.68243492     0.76200
O640        O  0.09155816  0.78998847  0.89438369    -0.59900
O641        O  0.06849510  0.73185326  0.90186528    -0.53000
C642        C  0.08891266  0.75909098  0.91191159     0.72700
Zr643      Zr  0.07083575  0.81952616  0.83741635     2.54700
O644        O  0.13639460  0.83015896  0.82802588    -0.80500
O645        O  0.06950295  0.86348378  0.88844074    -0.93900
Zr646      Zr  0.08541519  0.74128163  0.76114226     2.64700
O647        O  0.15110973  0.75078000  0.77290408    -0.98800
O648        O  0.10185183  0.69660407  0.71359909    -0.80900
O649        O  0.07790421  0.80557732  0.77368793    -0.84300
O650        O  0.08193748  0.75611050  0.82513621    -2.19000
O651        O  0.97704709  0.78520960  0.89382452    -0.67600
O652        O  0.98252622  0.72457680  0.89886796    -0.52200
C653        C  0.96641589  0.75463712  0.90810237     0.71100
O654        O  0.96111274  0.75971874  0.69219556    -0.60500
O655        O  0.98039642  0.81930317  0.69595697    -0.52500
C656        C  0.96519090  0.79289747  0.67852162     0.72900
O657        O  0.96405621  0.66842980  0.78730960    -0.71900
O658        O  0.99586894  0.66958537  0.84179915    -0.50600
C659        C  0.97440782  0.65372258  0.81874315     0.74300
O660        O  0.94387236  0.86170008  0.80231874    -0.67300
O661        O  0.97645459  0.87804002  0.75046595    -0.54500
C662        C  0.95084840  0.88375580  0.77512364     0.72700
Zr663      Zr  0.96213218  0.80386703  0.83084524     2.77500
O664        O  0.90227604  0.77361603  0.82437529    -0.98000
O665        O  0.92366964  0.84193795  0.87034930    -0.78800
Zr666      Zr  0.97594841  0.72860990  0.75357933     2.70100
O667        O  0.90876892  0.72369656  0.74989165    -0.80100
O668        O  0.98754856  0.68131543  0.70720822    -0.99200
Zr669      Zr  0.02132789  0.82600013  0.74655945     2.21500
Zr670      Zr  0.02819801  0.72572655  0.84823372     2.11100
O671        O  0.97065954  0.74072075  0.81853372    -2.47900
O672        O  0.96764997  0.79256688  0.76658914    -0.79900
O673        O  0.01829779  0.78892661  0.86138275    -0.72100
O674        O  0.02926963  0.76130685  0.73263463    -2.33000
O675        O  0.01395317  0.83854827  0.81079837    -2.29200
O676        O  0.03197399  0.71069103  0.78364647    -0.73800
H677        H  0.10409676  0.74748357  0.83734762     0.78200
H678        H  0.03097805  0.75734538  0.70619718     0.79200
H679        H  0.95085075  0.72634297  0.82943923     0.81500
H680        H  0.00914013  0.86414848  0.81616811     0.79100
H681        H  0.07820893  0.69129005  0.70083225     0.42100
H682        H  0.00654443  0.66517065  0.71858361     0.41100
H683        H  0.90083530  0.74648859  0.73690651     0.40800
H684        H  0.89582483  0.76508121  0.84974229     0.38700
H685        H  0.94200014  0.85746149  0.88340598     0.41800
H686        H  0.05312383  0.85201951  0.90737832     0.36600
H687        H  0.14282482  0.81672036  0.80503232     0.42700
H688        H  0.15788272  0.73102742  0.79071323     0.39100
H689        H  0.88466176  0.79374666  0.81877641     0.44100
H690        H  0.05512882  0.88484773  0.87917532     0.42800
H691        H  0.16347023  0.74363835  0.74940757     0.42900
H692        H  0.96470475  0.66617087  0.70720052     0.43300
O693        O  0.79420131  0.04315220  0.69123159    -0.75600
O694        O  0.85366631  0.02110055  0.69200153    -0.54500
C695        C  0.82643724  0.03787012  0.67639152     0.78100
O696        O  0.82331336  0.02457599  0.89115111    -0.60200
O697        O  0.76226558  0.01978406  0.89433481    -0.53200
C698        C  0.79254596  0.03589162  0.90402668     0.70200
O699        O  0.89638373  0.05598638  0.79677785    -0.74800
O700        O  0.91742861  0.02550072  0.74640975    -0.55300
C701        C  0.91998955  0.05133878  0.77059739     0.76200
O702        O  0.70503208  0.03511616  0.78323492    -0.59900
O703        O  0.70681549  0.00744440  0.84025887    -0.53000
C704        C  0.69065812  0.02643435  0.81521976     0.72700
Zr705      Zr  0.76569538  0.02520633  0.75116180     2.54700
O706        O  0.75577733  0.09161055  0.74876144    -0.80500
O707        O  0.71883906  0.01112216  0.70487627    -0.93900
Zr708      Zr  0.84073260  0.03780416  0.82814725     2.64700
O709        O  0.80998444  0.09716313  0.82132500    -0.98800
O710        O  0.88061859  0.07414379  0.86715749    -0.80900
O711        O  0.83007438  0.03414253  0.76407280    -0.84300
O712        O  0.77732655  0.03000427  0.81566730    -2.19000
O713        O  0.71990409  0.89996338  0.77788532    -0.67600
O714        O  0.70902734  0.93269185  0.83112308    -0.52200
C715        C  0.69930451  0.90998017  0.80552329     0.71100
O716        O  0.91732986  0.92705359  0.80873822    -0.60500
O717        O  0.91415675  0.93330630  0.74667060    -0.52500
C718        C  0.92704927  0.91732025  0.77601619     0.72900
O719        O  0.82596935  0.93381427  0.89683507    -0.71900
O720        O  0.76421571  0.92959464  0.89583237    -0.50600
C721        C  0.79558227  0.91901352  0.90825268     0.74300
O722        O  0.81594300  0.90670939  0.69366539    -0.67300
O723        O  0.86487942  0.94616677  0.68947842    -0.54500
C724        C  0.84447079  0.92058825  0.67628468     0.72700
Zr725      Zr  0.78204865  0.91697939  0.75398818     2.77500
O726        O  0.79282330  0.85115627  0.76183739    -0.98000
O727        O  0.73830629  0.90758155  0.70363496    -0.78800
Zr728      Zr  0.85555546  0.92988555  0.83528476     2.70100
O729        O  0.85148240  0.86334125  0.83255116    -0.80100
O730        O  0.90437045  0.91918907  0.88062815    -0.99200
Zr731      Zr  0.86538617  0.98182230  0.74442007     2.21500
Zr732      Zr  0.76123921  0.97249780  0.84417095     2.11100
O733        O  0.79265455  0.91944690  0.81970783    -2.47900
O734        O  0.84526960  0.92472065  0.77041685    -0.79900
O735        O  0.74918336  0.96824444  0.77888758    -0.72100
O736        O  0.87653500  0.98667852  0.80903276    -2.33000
O737        O  0.80095324  0.97425815  0.72880049    -2.29200
O738        O  0.82456841  0.98194040  0.85829802    -0.73800
H739        H  0.76292772  0.04973308  0.82638226     0.78200
H740        H  0.90232153  0.99080875  0.81476907     0.79200
H741        H  0.78360149  0.89711169  0.83136092     0.81500
H742        H  0.79754889  0.97325588  0.70225904     0.79100
H743        H  0.89446860  0.05514451  0.88125228     0.42100
H744        H  0.91928881  0.94213175  0.88023321     0.41100
H745        H  0.86133799  0.85716330  0.80764886     0.40800
H746        H  0.77439195  0.83936161  0.74541012     0.38700
H747        H  0.73233951  0.93279414  0.69481731     0.41800
H748        H  0.70655384  0.03504678  0.69990284     0.36600
H749        H  0.78099955  0.10232645  0.74780334     0.42700
H750        H  0.80373526  0.10484744  0.84690401     0.39100
H751        H  0.81693975  0.84671974  0.74942986     0.44100
H752        H  0.69997050  0.99637309  0.71840692     0.42800
H753        H  0.82946520  0.11430355  0.81244663     0.42900
H754        H  0.89218497  0.91942705  0.90525232     0.43300
O755        O  0.71928195  0.75885673  0.06867824    -0.75600
O756        O  0.71306237  0.81509582  0.03980570    -0.54500
C757        C  0.70133102  0.78887525  0.06107173     0.78100
O758        O  0.91087457  0.77967403  0.07214507    -0.60200
O759        O  0.92198529  0.72638098  0.04057596    -0.53200
C760        C  0.93010262  0.75092159  0.06525040     0.70200
O761        O  0.82847548  0.86618616  0.07292856    -0.74800
O762        O  0.77311009  0.87701623  0.04471613    -0.55300
C763        C  0.79952519  0.88577288  0.06729396     0.76200
O764        O  0.81176970  0.67077543  0.06737386    -0.59900
O765        O  0.86430623  0.66807148  0.03236805    -0.53000
C766        C  0.84208198  0.65452579  0.05674438     0.72700
Zr767      Zr  0.77899693  0.72973722  0.05167147     2.54700
O768        O  0.77901020  0.72849820  0.11927178    -0.80500
O769        O  0.73242869  0.68155696  0.04545106    -0.93900
Zr770      Zr  0.85447636  0.80847822  0.05387548     2.64700
O771        O  0.84285335  0.80153917  0.11994945    -0.98800
O772        O  0.90130418  0.85680259  0.05143577    -0.80900
O773        O  0.79078442  0.79461796  0.05505735    -0.84300
O774        O  0.84308639  0.74433700  0.05236896    -2.19000
O775        O  0.80600505  0.67352836  0.92989957    -0.67600
O776        O  0.86521721  0.67417323  0.95235668    -0.52200
C777        C  0.83813888  0.65845217  0.93572943     0.71100
O778        O  0.82935281  0.86954413  0.92805777    -0.60500
O779        O  0.77272404  0.87643339  0.95565292    -0.52500
C780        C  0.79889925  0.88672053  0.93298957     0.72900
O781        O  0.91363513  0.78510157  0.92666404    -0.71900
O782        O  0.92410600  0.72947471  0.95420914    -0.50600
C783        C  0.93299359  0.75593888  0.93174202     0.74300
O784        O  0.71760698  0.76858336  0.92896275    -0.67300
O785        O  0.71420348  0.82144917  0.96325350    -0.54500
C786        C  0.70117332  0.79881099  0.93953302     0.72700
Zr787      Zr  0.77778276  0.73560978  0.94180255     2.77500
O788        O  0.78360363  0.74083443  0.87457030    -0.98000
O789        O  0.72823939  0.69035684  0.93671518    -0.78800
Zr790      Zr  0.85576781  0.81202300  0.94538026     2.70100
O791        O  0.84654756  0.80629014  0.87909248    -0.80100
O792        O  0.90417322  0.85890558  0.94586883    -0.99200
Zr793      Zr  0.76747266  0.82443024  0.00107182     2.21500
Zr794      Zr  0.87006570  0.72338345  0.99593699     2.11100
O795        O  0.84272743  0.74862245  0.94127080    -2.47900
O796        O  0.79136660  0.79991034  0.94451353    -0.79900
O797        O  0.80522556  0.70820888  0.99535552    -0.72100
O798        O  0.83129039  0.83732717  0.00044623    -2.33000
O799        O  0.75379734  0.75921120  0.99829722    -2.29200
O800        O  0.88289802  0.78689737  0.99897815    -0.73800
H801        H  0.85446203  0.73236829  0.07345777     0.78200
H802        H  0.83599008  0.86355879  0.00110055     0.79200
H803        H  0.85399446  0.73855730  0.91914931     0.81500
H804        H  0.72736504  0.75506434  0.99829399     0.79100
H805        H  0.92187191  0.84618427  0.03667283     0.42100
H806        H  0.89409816  0.87906014  0.96136737     0.41100
H807        H  0.81963498  0.81007088  0.87546567     0.40800
H808        H  0.80166630  0.72149467  0.86759000     0.38700
H809        H  0.71386247  0.69296533  0.96004010     0.41800
H810        H  0.73429747  0.66692536  0.06866470     0.36600
H811        H  0.77031737  0.70339523  0.12590627     0.42700
H812        H  0.81746288  0.81123549  0.12357567     0.39100
H813        H  0.75960390  0.73174642  0.86500676     0.44100
H814        H  0.74235246  0.66511222  0.02591272     0.42800
H815        H  0.84003474  0.77463020  0.12370641     0.42900
H816        H  0.92423584  0.84821266  0.96119165     0.43300
C817        C  0.93088779  0.55646697  0.82670546    -0.26600
C818        C  0.94250909  0.54631795  0.86266599    -0.14700
C819        C  0.96412169  0.57091627  0.88311329     0.35900
C820        C  0.97317343  0.60508865  0.86804158    -0.26100
C821        C  0.96194270  0.61619080  0.83193092    -0.15300
C822        C  0.94038957  0.59122646  0.81103421     0.37000
N823        N  0.92778747  0.60116404  0.77456039    -0.89600
H824        H  0.91380021  0.53746104  0.81117312     0.18100
H825        H  0.98963897  0.62298267  0.88543521     0.18100
N826        N  0.97837179  0.56141391  0.91901371    -0.88600
H827        H  0.91117069  0.58024153  0.76365337     0.35500
H828        H  0.95111262  0.60302007  0.75733296     0.40600
H829        H  0.99210142  0.53611799  0.91723817     0.40200
H830        H  0.95629390  0.55772058  0.93709585     0.35100
C831        C  0.86256704  0.59977251  0.95704776    -0.26600
C832        C  0.84553234  0.61876950  0.92799217    -0.14700
C833        C  0.84353501  0.60153546  0.89304103     0.35900
C834        C  0.86031758  0.56627096  0.88813895    -0.26100
C835        C  0.88074689  0.54882716  0.91689002    -0.15300
C836        C  0.88160886  0.56689886  0.95165245     0.37000
N837        N  0.90381059  0.55422615  0.98158571    -0.89600
H838        H  0.86418978  0.61244149  0.98419680     0.18100
H839        H  0.85866655  0.55296675  0.86133289     0.18100
N840        N  0.82628802  0.62032127  0.86250041    -0.88600
H841        H  0.88621018  0.55039141  0.00436821     0.35500
H842        H  0.92271736  0.57492027  0.98845372     0.40600
H843        H  0.79818185  0.62323056  0.86899002     0.40200
H844        H  0.82773548  0.60416591  0.83855538     0.35100
C845        C  0.94628108  0.38018575  0.88388528    -0.26600
C846        C  0.93532989  0.40905812  0.86092603    -0.14700
C847        C  0.93281813  0.40267219  0.82229356     0.35900
C848        C  0.94112001  0.36730872  0.80780607    -0.26100
C849        C  0.95057363  0.33801166  0.83170218    -0.15300
C850        C  0.95077256  0.34477947  0.87066411     0.37000
N851        N  0.95435592  0.31621649  0.89811010    -0.89600
H852        H  0.95093064  0.38484861  0.91295220     0.18100
H853        H  0.94103243  0.36307689  0.77804289     0.18100
N854        N  0.92239478  0.43201873  0.79777599    -0.88600
H855        H  0.98179197  0.30734108  0.89970792     0.35500
H856        H  0.93643736  0.29452978  0.89162939     0.40600
H857        H  0.89884500  0.42365687  0.78324481     0.40200
H858        H  0.94386551  0.43587210  0.77855097     0.35100
C859        C  0.87330543  0.35532820  0.95721068    -0.26600
C860        C  0.84700406  0.33974338  0.93313947    -0.14700
C861        C  0.83556501  0.36104255  0.90203849     0.35900
C862        C  0.85110708  0.39659746  0.89647680    -0.26100
C863        C  0.87857822  0.41105646  0.92023302    -0.15300
C864        C  0.88939166  0.38949769  0.95125378     0.37000
N865        N  0.92013225  0.39819938  0.97467242    -0.89600
H866        H  0.88306316  0.33995291  0.98117789     0.18100
H867        H  0.84309263  0.41234554  0.87214091     0.18100
N868        N  0.81011089  0.34746070  0.87471072    -0.88600
H869        H  0.91013368  0.40471533  0.00105221     0.35500
H870        H  0.93509827  0.42020657  0.96430785     0.40600
H871        H  0.80177289  0.32054387  0.88046686     0.40200
H872        H  0.82427434  0.34639432  0.84933741     0.35100
C873        C  0.91460257  0.55524615  0.17926844    -0.26600
C874        C  0.93376575  0.53841809  0.14965306    -0.14700
C875        C  0.96521124  0.55652138  0.13447686     0.35900
C876        C  0.97687618  0.58973458  0.14971409    -0.26100
C877        C  0.95635445  0.60811700  0.17736302    -0.15300
C878        C  0.92506145  0.59029855  0.19279810     0.37000
N879        N  0.90322113  0.60821476  0.22085978    -0.89600
H880        H  0.89019716  0.54175281  0.19055129     0.18100
H881        H  0.00127905  0.60255375  0.13759922     0.18100
N882        N  0.98420175  0.54434581  0.10159928    -0.88600
H883        H  0.88139622  0.59116239  0.22943593     0.35500
H884        H  0.89110457  0.63148470  0.20867938     0.40600
H885        H  0.97162143  0.52148204  0.08970225     0.40200
H886        H  0.01133308  0.53744284  0.10881633     0.35100
C887        C  0.89723767  0.56624553  0.07577885    -0.26600
C888        C  0.87299493  0.54479517  0.09709141    -0.14700
C889        C  0.83800638  0.56005117  0.10673039     0.35900
C890        C  0.82831832  0.59579748  0.09381919    -0.26100
C891        C  0.85319747  0.61746722  0.07261919    -0.15300
C892        C  0.88898853  0.60256332  0.06529281     0.37000
N893        N  0.91743994  0.62428636  0.04750173    -0.89600
H894        H  0.92326219  0.55450294  0.06710403     0.18100
H895        H  0.80114556  0.60663063  0.10051443     0.18100
N896        N  0.81196999  0.54057544  0.12994487    -0.88600
H897        H  0.94175699  0.60901661  0.04391587     0.35500
H898        H  0.92420874  0.64572578  0.06558660     0.40600
H899        H  0.82217899  0.51485437  0.13807039     0.40200
H900        H  0.78819334  0.53568408  0.11423647     0.35100
C901        C  0.92889999  0.39191920  0.18064905    -0.26600
C902        C  0.92771370  0.39987631  0.14229083    -0.14700
C903        C  0.93543323  0.37139597  0.11702525     0.35900
C904        C  0.94175018  0.33551764  0.13009927    -0.26100
C905        C  0.94361483  0.32726137  0.16842980    -0.15300
C906        C  0.93654945  0.35606171  0.19392221     0.37000
N907        N  0.93743570  0.34999956  0.23322147    -0.89600
H908        H  0.92273809  0.41354046  0.20040251     0.18100
H909        H  0.94735413  0.31423995  0.10978138     0.18100
N910        N  0.93778673  0.37894243  0.07797884    -0.88600
H911        H  0.96362572  0.34000761  0.24037611     0.35500
H912        H  0.91757520  0.33003290  0.23997080     0.40600
H913        H  0.91954577  0.36123364  0.06430590     0.40200
H914        H  0.96460786  0.37242467  0.06911218     0.35100
C915        C  0.85075466  0.39726297  0.05876215    -0.26600
C916        C  0.85954487  0.40564237  0.09586779    -0.14700
C917        C  0.84815605  0.37940989  0.12324483     0.35900
C918        C  0.83731612  0.34338301  0.11230113    -0.26100
C919        C  0.83222842  0.33502073  0.07462911    -0.15300
C920        C  0.83365814  0.36418734  0.04887776     0.37000
N921        N  0.81762853  0.36124755  0.01257711    -0.89600
H922        H  0.85804505  0.41493707  0.03622792     0.18100
H923        H  0.83350731  0.32189967  0.13298640     0.18100
N924        N  0.84867459  0.38905045  0.16187147    -0.88600
H925        H  0.79767352  0.38200732  0.01008556     0.35500
H926        H  0.80331179  0.33640366  0.00956425     0.40600
H927        H  0.82961308  0.41040649  0.16571605     0.40200
H928        H  0.83963094  0.36686963  0.17823093     0.35100
C929        C  0.84953532  0.47959091  0.98518169    -0.26600
C930        C  0.88543614  0.47942284  0.96939998    -0.14700
C931        C  0.91604489  0.48109714  0.99402827     0.35900
C932        C  0.91069276  0.47984452  0.03241682    -0.26100
C933        C  0.87540589  0.47906260  0.04833803    -0.15300
C934        C  0.84423147  0.48053919  0.02451898     0.37000
N935        N  0.80765687  0.48039307  0.04026309    -0.89600
H936        H  0.82579048  0.47934765  0.96690679     0.18100
H937        H  0.93477449  0.48018132  0.05020898     0.18100
N938        N  0.95292584  0.48662014  0.98046086    -0.88600
H939        H  0.78781446  0.48037161  0.01919371     0.35500
H940        H  0.80434973  0.50513363  0.05464387     0.40600
H941        H  0.96268279  0.51174638  0.99066021     0.40200
H942        H  0.96959580  0.46618700  0.99237027     0.35100
C943        C  0.09823271  0.57515361  0.11518513    -0.26600
C944        C  0.10690339  0.54592746  0.13890339    -0.14700
C945        C  0.11090901  0.55316511  0.17764976     0.35900
C946        C  0.10473498  0.58922433  0.19124355    -0.26100
C947        C  0.09689950  0.61846057  0.16687539    -0.15300
C948        C  0.09571815  0.61111776  0.12817891     0.37000
N949        N  0.09185801  0.64048064  0.10159348    -0.89600
H950        H  0.09591108  0.57047174  0.08559633     0.18100
H951        H  0.10581718  0.59426508  0.22085619     0.18100
N952        N  0.12332178  0.52558577  0.20359003    -0.88600
H953        H  0.06797066  0.63561381  0.08600251     0.35500
H954        H  0.11465615  0.63975342  0.08358032     0.40600
H955        H  0.10243259  0.52167682  0.22341534     0.40200
H956        H  0.12788141  0.50023454  0.19082619     0.35100
C957        C  0.20529244  0.60202963  0.10455209    -0.26600
C958        C  0.20310161  0.61631158  0.06823164    -0.14700
C959        C  0.18782865  0.59359201  0.04071957     0.35900
C960        C  0.17068669  0.56042603  0.04985163    -0.26100
C961        C  0.17056568  0.54623005  0.08599318    -0.15300
C962        C  0.19010196  0.56669002  0.11331476     0.37000
N963        N  0.19457627  0.55181369  0.14988323    -0.89600
H964        H  0.21747069  0.61858697  0.12628313     0.18100
H965        H  0.15614868  0.54731003  0.02780589     0.18100
N966        N  0.18783635  0.60511753  0.00283773    -0.88600
H967        H  0.22297102  0.54897335  0.15471899     0.35500
H968        H  0.18446924  0.57115144  0.16881847     0.40600
H969        H  0.16013059  0.60688364  0.99477284     0.40200
H970        H  0.20077027  0.58454240  0.98718128     0.35100
C971        C  0.07655253  0.39004594  0.12937521    -0.26600
C972        C  0.10844759  0.40845022  0.14043063    -0.14700
C973        C  0.13080479  0.39134293  0.16817593     0.35900
C974        C  0.12057167  0.35626798  0.18288528    -0.26100
C975        C  0.08813476  0.33826882  0.17100728    -0.15300
C976        C  0.06536984  0.35687840  0.14517395     0.37000
N977        N  0.03010848  0.34235237  0.13463036    -0.89600
H978        H  0.06018395  0.40029255  0.10709262     0.18100
H979        H  0.13850111  0.34276455  0.20279805     0.18100
N980        N  0.16399567  0.40837821  0.18180661    -0.88600
H981        H  0.03014550  0.33842365  0.10586390     0.35500
H982        H  0.01034110  0.36243260  0.14090440     0.40600
H983        H  0.16838653  0.43423275  0.16967622     0.40200
H984        H  0.18630725  0.39168513  0.17407124     0.35100
C985        C  0.14024435  0.38370644  0.06437348    -0.26600
C986        C  0.16377102  0.40934572  0.08042563    -0.14700
C987        C  0.20106864  0.39989496  0.08714831     0.35900
C988        C  0.21429010  0.36462150  0.07716676    -0.26100
C989        C  0.19028564  0.33843188  0.06152767    -0.15300
C990        C  0.15234578  0.34822953  0.05644785     0.37000
N991        N  0.12529299  0.32199013  0.04420189    -0.89600
H992        H  0.11156394  0.39088048  0.05920112     0.18100
H993        H  0.24316927  0.35783182  0.08157345     0.18100
N994        N  0.22528273  0.42581483  0.10458380    -0.88600
H995        H  0.11296132  0.33220444  0.02001011     0.35500
H996        H  0.10475185  0.31970890  0.06467411     0.40600
H997        H  0.23547744  0.41369536  0.12888227     0.40200
H998        H  0.24774784  0.43054958  0.08676802     0.35100
C999        C  0.03838837  0.48339620  0.16662476    -0.26600
C1000       C  0.05646242  0.47527483  0.13268966    -0.14700
C1001       C  0.03358063  0.46301554  0.10314541     0.35900
C1002       C  0.99551589  0.45685658  0.10836785    -0.26100
C1003       C  0.97708426  0.46701283  0.14094774    -0.15300
C1004       C  0.99898285  0.48019942  0.17076435     0.37000
N1005       N  0.98124042  0.49052915  0.20490619    -0.89600
H1006       H  0.05479009  0.49242160  0.18986826     0.18100
H1007       H  0.97950498  0.44720910  0.08495854     0.18100
N1008       N  0.04839694  0.45732536  0.06678815    -0.88600
H1009       H  0.00086425  0.49989039  0.22395158     0.35500
H1010       H  0.96930303  0.46675618  0.21635086     0.40600
H1011       H  0.04259002  0.43042291  0.05829338     0.40200
H1012       H  0.03341470  0.47449635  0.04889799     0.35100
C1013       C  0.14066586  0.56816982  0.82389710    -0.26600
C1014       C  0.11405549  0.54728593  0.84401689    -0.14700
C1015       C  0.07976681  0.56414927  0.85178776     0.35900
C1016       C  0.07281227  0.60018566  0.84013473    -0.26100
C1017       C  0.09978596  0.62190886  0.82264684    -0.15300
C1018       C  0.13415486  0.60558404  0.81374053     0.37000
N1019       N  0.16271160  0.62719888  0.79623368    -0.89600
H1020       H  0.16749450  0.55596447  0.81829835     0.18100
H1021       H  0.04619024  0.61207633  0.84687848     0.18100
N1022       N  0.05245233  0.54632204  0.87416351    -0.88600
H1023       H  0.18638482  0.61113648  0.79192702     0.35500
H1024       H  0.17024150  0.64801266  0.81475341     0.40600
H1025       H  0.02821193  0.54590104  0.85857873     0.40200
H1026       H  0.04715904  0.56319448  0.89696845     0.35100
C1027       C  0.15574403  0.61243120  0.92263199    -0.26600
C1028       C  0.19320724  0.62205792  0.91776906    -0.14700
C1029       C  0.21769194  0.59503751  0.90362899     0.35900
C1030       C  0.20414884  0.55897815  0.89647528    -0.26100
C1031       C  0.16710548  0.54914752  0.90439832    -0.15300
C1032       C  0.14335201  0.57631394  0.91934129     0.37000
N1033       N  0.10661080  0.56847348  0.93244654    -0.89600
H1034       H  0.13598225  0.63260802  0.93268480     0.18100
H1035       H  0.22242790  0.53851375  0.88446196     0.18100
N1036       N  0.25598408  0.60386080  0.89719150    -0.88600
H1037       H  0.10616472  0.57269702  0.96115540     0.35500
H1038       H  0.09958602  0.54107732  0.92828564     0.40600
H1039       H  0.25701401  0.62331670  0.87567382     0.40200
H1040       H  0.27029574  0.58065487  0.88768559     0.35100
C1041       C  0.11926712  0.36031334  0.79902103    -0.26600
C1042       C  0.10471066  0.33462438  0.82466800    -0.14700
C1043       C  0.09894013  0.34621078  0.86195233     0.35900
C1044       C  0.10312569  0.38296911  0.87133474    -0.26100
C1045       C  0.11889333  0.40819756  0.84677058    -0.15300
C1046       C  0.12736455  0.39696884  0.81014211     0.37000
N1047       N  0.14361673  0.42282899  0.78448511    -0.89600
H1048       H  0.12375092  0.35207768  0.77047794     0.18100
H1049       H  0.09586180  0.39143892  0.89910459     0.18100
N1050       N  0.08889193  0.32065866  0.89090015    -0.88600
H1051       H  0.14800015  0.41035216  0.75871759     0.35500
H1052       H  0.16973781  0.42997005  0.79465379     0.40600
H1053       H  0.06371338  0.32916272  0.90252662     0.40200
H1054       H  0.10911042  0.32171343  0.91158345     0.35100
C1055       C  0.19895810  0.39064640  0.88239554    -0.26600
C1056       C  0.17368449  0.40965535  0.90557450    -0.14700
C1057       C  0.16104709  0.39148805  0.93802662     0.35900
C1058       C  0.17414307  0.35626682  0.94694145    -0.26100
C1059       C  0.19791078  0.33642754  0.92325878    -0.15300
C1060       C  0.21072832  0.35403719  0.89056861     0.37000
N1061       N  0.23417992  0.33440381  0.86512725    -0.89600
H1062       H  0.20801144  0.40376922  0.85682412     0.18100
H1063       H  0.16382348  0.34353165  0.97221009     0.18100
N1064       N  0.13263233  0.40713040  0.96085640    -0.88600
H1065       H  0.24092288  0.35113509  0.84234178     0.35500
H1066       H  0.21888514  0.31224390  0.85474275     0.40600
H1067       H  0.14294065  0.40893038  0.98786692     0.40200
H1068       H  0.11019971  0.38887986  0.96177077     0.35100
C1069       C  0.13255488  0.48646776  0.97140357    -0.26600
C1070       C  0.16583590  0.48001308  0.95255465    -0.14700
C1071       C  0.19746639  0.47099278  0.97435510     0.35900
C1072       C  0.19460170  0.47006179  0.01399762    -0.26100
C1073       C  0.16097383  0.47827291  0.03260208    -0.15300
C1074       C  0.12990523  0.48692355  0.01024020     0.37000
N1075       N  0.09556090  0.49781423  0.02691631    -0.89600
H1076       H  0.10746581  0.48946841  0.95545619     0.18100
H1077       H  0.21882853  0.46320846  0.03023485     0.18100
N1078       N  0.23250855  0.46239904  0.95748006    -0.88600
H1079       H  0.07540105  0.50256605  0.00665989     0.35500
H1080       H  0.09929570  0.52307967  0.04005452     0.40600
H1081       H  0.23110557  0.46471994  0.92859496     0.40200
H1082       H  0.23834622  0.43476494  0.96351654     0.35100
C1083       C  0.00398923  0.48469111  0.82785030    -0.26600
C1084       C  0.98774241  0.47372344  0.86213589    -0.14700
C1085       C  0.01257606  0.45973381  0.88963038     0.35900
C1086       C  0.05088430  0.45974882  0.88375061    -0.26100
C1087       C  0.06746421  0.47280482  0.85115035    -0.15300
C1088       C  0.04335214  0.48411912  0.82190020     0.37000
N1089       N  0.05766247  0.49683578  0.78684857    -0.89600
H1090       H  0.98618685  0.49473058  0.80588107     0.18100
H1091       H  0.06839346  0.45099103  0.90654724     0.18100
N1092       N  0.00067986  0.44583476  0.92493598    -0.88600
H1093       H  0.04773252  0.47902907  0.76641570     0.35500
H1094       H  0.08652127  0.49474016  0.78614972     0.40600
H1095       H  0.97255300  0.44919217  0.92812354     0.40200
H1096       H  0.01322690  0.46199892  0.94530786     0.35100
C1097       C  0.60029765  0.91938626  0.82895391    -0.26600
C1098       C  0.58893107  0.88347275  0.83814466    -0.14700
C1099       C  0.61232254  0.85389683  0.82600120     0.35900
C1100       C  0.64891125  0.86166498  0.81393499    -0.26100
C1101       C  0.66001962  0.89817885  0.80755399    -0.15300
C1102       C  0.63314170  0.92588468  0.80926263     0.37000
N1103       N  0.63978972  0.96064169  0.79121152    -0.89600
H1104       H  0.58519470  0.94296451  0.83843965     0.18100
H1105       H  0.66843936  0.83936885  0.80977174     0.18100
N1106       N  0.59985122  0.81627425  0.82472598    -0.88600
H1107       H  0.61566154  0.97656952  0.79181006     0.35500
H1108       H  0.64466177  0.95531723  0.76309156     0.40600
H1109       H  0.57243700  0.81369344  0.83371975     0.40200
H1110       H  0.61670667  0.80034421  0.84198451     0.35100
C1111       C  0.65883836  0.84891331  0.92071884    -0.26600
C1112       C  0.66456031  0.81062798  0.92456296    -0.14700
C1113       C  0.63381746  0.78683153  0.92133762     0.35900
C1114       C  0.59850849  0.80189856  0.91336255    -0.26100
C1115       C  0.59332855  0.84026446  0.90860437    -0.15300
C1116       C  0.62382076  0.86405499  0.91456778     0.37000
N1117       N  0.62047999  0.90364888  0.91518142    -0.89600
H1118       H  0.68186382  0.86778723  0.92429594     0.18100
H1119       H  0.57510422  0.78356444  0.90965178     0.18100
N1120       N  0.63818915  0.74786785  0.92729610    -0.88600
H1121       H  0.62898524  0.91256545  0.94137895     0.35500
H1122       H  0.59303741  0.91222786  0.91276163     0.40600
H1123       H  0.65477817  0.73774378  0.90577200     0.40200
H1124       H  0.61263204  0.73445200  0.92518249     0.35100
C1125       C  0.40405749  0.88916906  0.80142763    -0.26600
C1126       C  0.37852787  0.90407875  0.82692296    -0.14700
C1127       C  0.39006145  0.90890548  0.86449954     0.35900
C1128       C  0.42648125  0.90280648  0.87418722    -0.26100
C1129       C  0.45144873  0.88674830  0.84964061    -0.15300
C1130       C  0.44030659  0.87975567  0.81285448     0.37000
N1131       N  0.46555037  0.86291467  0.78731956    -0.89600
H1132       H  0.39607623  0.88509219  0.77276685     0.18100
H1133       H  0.43492708  0.90922997  0.90215081     0.18100
N1134       N  0.36532929  0.91807872  0.89439842    -0.88600
H1135       H  0.46868975  0.88059742  0.76449551     0.35500
H1136       H  0.45352175  0.83843276  0.77796936     0.40600
H1137       H  0.34199799  0.90100157  0.89340158     0.40200
H1138       H  0.35807642  0.94594029  0.89330879     0.35100
C1139       C  0.43668802  0.80789194  0.88500287    -0.26600
C1140       C  0.45395229  0.83315745  0.90911115    -0.14700
C1141       C  0.43451040  0.84453340  0.94131230     0.35900
C1142       C  0.40024420  0.82854694  0.94949498    -0.26100
C1143       C  0.38191713  0.80466790  0.92463460    -0.15300
C1144       C  0.40035148  0.79493725  0.89128330     0.37000
N1145       N  0.38284157  0.77428607  0.86220802    -0.89600
H1146       H  0.45065066  0.80032404  0.85943189     0.18100
H1147       H  0.38660128  0.83709738  0.97492929     0.18100
N1148       N  0.44659296  0.87437317  0.96456974    -0.88600
H1149       H  0.38233366  0.79112578  0.83852998     0.35500
H1150       H  0.35521459  0.76855672  0.86834316     0.40600
H1151       H  0.47064746  0.88694757  0.95461359     0.40200
H1152       H  0.45191383  0.86389572  0.99109802     0.35100
C1153       C  0.62238192  0.89715530  0.11754933    -0.26600
C1154       C  0.59448416  0.88746319  0.14274773    -0.14700
C1155       C  0.60349448  0.88518783  0.18124071     0.35900
C1156       C  0.64003362  0.89280287  0.19279882    -0.26100
C1157       C  0.66803094  0.90086669  0.16683631    -0.15300
C1158       C  0.65914534  0.90103171  0.12854042     0.37000
N1159       N  0.68756410  0.90589747  0.10073342    -0.89600
H1160       H  0.61613227  0.89976836  0.08864529     0.18100
H1161       H  0.64648136  0.89255776  0.22216454     0.18100
N1162       N  0.57737818  0.87286229  0.20889820    -0.88600
H1163       H  0.67634366  0.90582293  0.07399697     0.35500
H1164       H  0.70520444  0.88308179  0.10234906     0.40600
H1165       H  0.55163526  0.86672779  0.19743960     0.40200
H1166       H  0.57332970  0.89443060  0.22763772     0.35100
C1167       C  0.61968332  0.81470088  0.12291260    -0.26600
C1168       C  0.59095161  0.81672944  0.09629392    -0.14700
C1169       C  0.59686547  0.79368778  0.06487525     0.35900
C1170       C  0.63327198  0.78592216  0.05332899    -0.26100
C1171       C  0.66348227  0.79347255  0.07632899    -0.15300
C1172       C  0.65622065  0.80505384  0.11299324     0.37000
N1173       N  0.68496997  0.80883500  0.14025652    -0.89600
H1174       H  0.61439890  0.82191447  0.15139999     0.18100
H1175       H  0.63780560  0.77148376  0.02739229     0.18100
N1176       N  0.56869369  0.76983807  0.05079556    -0.88600
H1177       H  0.67920164  0.79024106  0.16180431     0.35500
H1178       H  0.71084980  0.80154814  0.12954612     0.40600
H1179       H  0.54408117  0.77204587  0.06588395     0.40200
H1180       H  0.56507706  0.77522124  0.02254871     0.35100
C1181       C  0.44809758  0.92198316  0.16162630    -0.26600
C1182       C  0.45716729  0.88548272  0.15189664    -0.14700
C1183       C  0.43296165  0.85751628  0.16646467     0.35900
C1184       C  0.39729290  0.86723027  0.17979617    -0.26100
C1185       C  0.38777548  0.90432570  0.18498081    -0.15300
C1186       C  0.41560215  0.93083434  0.18097105     0.37000
N1187       N  0.41074605  0.96668467  0.19703610    -0.89600
H1188       H  0.46514048  0.94460127  0.15404419     0.18100
H1189       H  0.37734663  0.84583982  0.18650329     0.18100
N1190       N  0.44443464  0.81988135  0.17104153    -0.88600
H1191       H  0.43510264  0.98211489  0.19422791     0.35500
H1192       H  0.40692649  0.96301618  0.22562824     0.40600
H1193       H  0.47146666  0.81573081  0.16157399     0.40200
H1194       H  0.42630857  0.80300495  0.15632099     0.35100
C1195       C  0.42529940  0.86139671  0.07671401    -0.26600
C1196       C  0.45329661  0.83601111  0.08503645    -0.14700
C1197       C  0.44411620  0.79792917  0.08596230     0.35900
C1198       C  0.40769684  0.78619953  0.07754884    -0.26100
C1199       C  0.37969037  0.81185436  0.06940809    -0.15300
C1200       C  0.38863651  0.85004656  0.07052658     0.37000
N1201       N  0.36014532  0.87742761  0.06605199    -0.89600
H1202       H  0.43180657  0.89059419  0.07679625     0.18100
H1203       H  0.40146998  0.75696805  0.07704650     0.18100
N1204       N  0.47120877  0.77118790  0.09706921    -0.88600
H1205       H  0.37118699  0.90405875  0.06751523     0.35500
H1206       H  0.34194065  0.87468793  0.08857640     0.40600
H1207       H  0.47330147  0.75129792  0.07624149     0.40200
H1208       H  0.46136138  0.75768563  0.12085080     0.35100
C1209       C  0.50533411  0.81248182  0.01622185    -0.26600
C1210       C  0.52583041  0.83848704  0.03710412    -0.14700
C1211       C  0.54763702  0.86381221  0.01597703     0.35900
C1212       C  0.54479685  0.86563080  0.97726114    -0.26100
C1213       C  0.52556834  0.83914986  0.95659553    -0.15300
C1214       C  0.50768928  0.81047990  0.97689506     0.37000
N1215       N  0.49384033  0.77788735  0.95915940    -0.89600
H1216       H  0.49016611  0.79108470  0.03024606     0.18100
H1217       H  0.55920884  0.88773054  0.96300967     0.18100
N1218       N  0.57514674  0.88672022  0.03220989    -0.88600
H1219       H  0.46514826  0.77679391  0.96300621     0.35500
H1220       H  0.49948937  0.77819415  0.93069562     0.40600
H1221       H  0.56388061  0.90032474  0.05486497     0.40200
H1222       H  0.59654952  0.86943159  0.04086232     0.35100
C1223       C  0.63473660  0.01404129  0.85232836    -0.26600
C1224       C  0.65239884  0.03682961  0.82575368    -0.14700
C1225       C  0.63433651  0.06891876  0.81333036     0.35900
C1226       C  0.59957552  0.07792233  0.82875378    -0.26100
C1227       C  0.58339325  0.05596692  0.85686469    -0.15300
C1228       C  0.60105198  0.02309870  0.86826279     0.37000
N1229       N  0.58758597  0.99975998  0.89786441    -0.89600
H1230       H  0.64786487  0.98891858  0.86208713     0.18100
H1231       H  0.58595549  0.10327783  0.82045900     0.18100
N1232       N  0.65185729  0.09298340  0.78674644    -0.88600
H1233       H  0.60815974  0.99815368  0.91818196     0.35500
H1234       H  0.56490968  0.01137846  0.91119047     0.40600
H1235       H  0.67554540  0.10388593  0.79923316     0.40200
H1236       H  0.63464373  0.11537578  0.78063112     0.35100
C1237       C  0.63537014  0.17090177  0.91209779    -0.26600
C1238       C  0.66520053  0.14715066  0.91954795    -0.14700
C1239       C  0.65878441  0.10853891  0.91868616     0.35900
C1240       C  0.62268703  0.09511161  0.91718201    -0.26100
C1241       C  0.59258934  0.11809790  0.90957643    -0.15300
C1242       C  0.59948557  0.15661487  0.90569541     0.37000
N1243       N  0.57093492  0.18170689  0.89460648    -0.89600
H1244       H  0.63970099  0.20047490  0.91195533     0.18100
H1245       H  0.61852444  0.06601399  0.92109652     0.18100
N1246       N  0.68919451  0.08283720  0.92017787    -0.88600
H1247       H  0.54997920  0.18144699  0.91462721     0.35500
H1248       H  0.55991120  0.17257894  0.86945444     0.40600
H1249       H  0.70516701  0.08686483  0.89619393     0.40200
H1250       H  0.67977598  0.05556178  0.91935948     0.35100
C1251       C  0.41806018  0.06470917  0.88318213    -0.26600
C1252       C  0.44847460  0.07099760  0.85994663    -0.14700
C1253       C  0.44293636  0.07207171  0.82073104     0.35900
C1254       C  0.40752985  0.06429167  0.80625474    -0.26100
C1255       C  0.37725273  0.05822014  0.82999267    -0.15300
C1256       C  0.38243245  0.06123589  0.86890550     0.37000
N1257       N  0.35126066  0.05986240  0.89396623    -0.89600
H1258       H  0.42197891  0.06363344  0.91296822     0.18100
H1259       H  0.40390478  0.06227509  0.77647148     0.18100
N1260       N  0.47214142  0.08093196  0.79485376    -0.88600
H1261       H  0.33470545  0.08286017  0.88830830     0.35500
H1262       H  0.35981585  0.06237902  0.92156030     0.40600
H1263       H  0.49651050  0.08831453  0.80834285     0.40200
H1264       H  0.46394674  0.10444703  0.78009980     0.35100
C1265       C  0.44138881  0.12736554  0.95007117    -0.26600
C1266       C  0.45620041  0.13080640  0.91455014    -0.14700
C1267       C  0.43629273  0.15132451  0.88742315     0.35900
C1268       C  0.40012629  0.16425432  0.89574154    -0.26100
C1269       C  0.38502855  0.15871125  0.93128714    -0.15300
C1270       C  0.40766044  0.14341229  0.95895138     0.37000
N1271       N  0.39524053  0.14234604  0.99636755    -0.89600
H1272       H  0.45500373  0.11071653  0.97093319     0.18100
H1273       H  0.38338931  0.17693376  0.87430118     0.18100
N1274       N  0.45188627  0.15663379  0.85101852    -0.88600
H1275       H  0.41628106  0.15315265  0.01298405     0.35500
H1276       H  0.39088500  0.11461152  0.00260259     0.40600
H1277       H  0.47572901  0.17273852  0.85390870     0.40200
H1278       H  0.43364211  0.17157470  0.83422493     0.35100
C1279       C  0.50334155  0.95272899  0.88642971    -0.26600
C1280       C  0.51588721  0.93642532  0.85334667    -0.14700
C1281       C  0.52098077  0.96019626  0.82204188     0.35900
C1282       C  0.52035835  0.99919898  0.82698243    -0.26100
C1283       C  0.51013142  0.01512518  0.86127727    -0.15300
C1284       C  0.49799118  0.99092500  0.88971788     0.37000
N1285       N  0.48082247  0.00488329  0.92267464    -0.89600
H1286       H  0.49709749  0.93540299  0.91025193     0.18100
H1287       H  0.52788650  0.01707614  0.80397150     0.18100
N1288       N  0.52745490  0.94591718  0.78542790    -0.88600
H1289       H  0.45376043  0.99460204  0.92366203     0.35500
H1290       H  0.49470844  0.99379908  0.94558841     0.40600
H1291       H  0.52815746  0.91712326  0.78575142     0.40200
H1292       H  0.55346728  0.95499725  0.77641683     0.35100
C1293       C  0.60559923  0.03510887  0.13535735    -0.26600
C1294       C  0.58892742  0.06660793  0.14961370    -0.14700
C1295       C  0.60720875  0.08659095  0.17805430     0.35900
C1296       C  0.64223395  0.07464100  0.19064869    -0.26100
C1297       C  0.65919657  0.04329138  0.17539576    -0.15300
C1298       C  0.63960320  0.02288390  0.14831846     0.37000
N1299       N  0.65380358  0.98906157  0.13384176    -0.89600
H1300       H  0.59261685  0.02006704  0.11301840     0.18100
H1301       H  0.65663981  0.09055374  0.21149948     0.18100
N1302       N  0.59132455  0.11899945  0.19453562    -0.88600
H1303       H  0.65678278  0.99190950  0.10505727     0.35500
H1304       H  0.63371462  0.96893252  0.13896101     0.40600
H1305       H  0.56507775  0.12467036  0.18388279     0.40200
H1306       H  0.60830550  0.14136491  0.18750225     0.35100
C1307       C  0.64078450  0.16818490  0.08977669    -0.26600
C1308       C  0.66429076  0.14241061  0.07255520    -0.14700
C1309       C  0.65027482  0.10653697  0.06530521     0.35900
C1310       C  0.61362690  0.09795460  0.07370088    -0.26100
C1311       C  0.59064200  0.12290958  0.09205641    -0.15300
C1312       C  0.60411932  0.15881504  0.09981615     0.37000
N1313       N  0.58187017  0.18612191  0.11821443    -0.89600
H1314       H  0.65074100  0.19584343  0.09515830     0.18100
H1315       H  0.60345918  0.07062853  0.06718556     0.18100
N1316       N  0.67327521  0.07807053  0.05004056    -0.88600
H1317       H  0.57793850  0.20791322  0.09951121     0.35500
H1318       H  0.55559088  0.17601243  0.12489116     0.40600
H1319       H  0.66131775  0.06905675  0.02526957     0.40200
H1320       H  0.67364354  0.05588670  0.06872008     0.35100
C1321       C  0.39662795  0.02728861  0.14656519    -0.26600
C1322       C  0.37969222  0.04848535  0.17451933    -0.14700
C1323       C  0.39982675  0.07792946  0.19001615     0.35900
C1324       C  0.43576547  0.08592588  0.17591413    -0.26100
C1325       C  0.45168199  0.06485011  0.14698355    -0.15300
C1326       C  0.43164045  0.03484789  0.13286912     0.37000
N1327       N  0.44555203  0.01221920  0.10355206    -0.89600
H1328       H  0.38260776  0.00368003  0.13469437     0.18100
H1329       H  0.45101221  0.10927965  0.18667924     0.18100
N1330       N  0.38370469  0.09997216  0.21889613    -0.88600
H1331       H  0.42578869  0.01119075  0.08246289     0.35500
H1332       H  0.44695500  0.98530546  0.11359628     0.40600
H1333       H  0.36076718  0.11356759  0.20765993     0.40200
H1334       H  0.40228958  0.12045424  0.22718547     0.35100
C1335       C  0.43999539  0.16016687  0.10559674    -0.26600
C1336       C  0.45132291  0.12507980  0.09287195    -0.14700
C1337       C  0.42558415  0.10334080  0.07386714     0.35900
C1338       C  0.38848690  0.11379115  0.07356486    -0.26100
C1339       C  0.37728047  0.15034426  0.08160800    -0.15300
C1340       C  0.40361942  0.17375681  0.09855027     0.37000
N1341       N  0.39364716  0.21074729  0.10851627    -0.89600
H1342       H  0.45957933  0.17699545  0.12069622     0.18100
H1343       H  0.36923741  0.09415208  0.06180042     0.18100
N1344       N  0.43628112  0.07079265  0.05382331    -0.88600
H1345       H  0.41629404  0.22430506  0.12028020     0.35500
H1346       H  0.37330310  0.20900625  0.12921671     0.40600
H1347       H  0.46479586  0.06639652  0.05463927     0.40200
H1348       H  0.43008530  0.07450822  0.02580939     0.35100
C1349       C  0.53263431  0.95630641  0.17033990    -0.26600
C1350       C  0.52858358  0.93723141  0.13629150    -0.14700
C1351       C  0.52190420  0.95894241  0.10421359     0.35900
C1352       C  0.52158361  0.99776020  0.10605679    -0.26100
C1353       C  0.52275223  0.01680585  0.13991380    -0.15300
C1354       C  0.52834961  0.99544727  0.17271619     0.37000
N1355       N  0.52916944  0.01224227  0.20874958    -0.89600
H1356       H  0.53629514  0.94056090  0.19564016     0.18100
H1357       H  0.51772967  0.01330943  0.08058638     0.18100
N1358       N  0.51262226  0.94177828  0.06977933    -0.88600
H1359       H  0.50665979  0.00179945  0.22387976     0.35500
H1360       H  0.52513751  0.04071091  0.20680528     0.40600
H1361       H  0.53002773  0.95266852  0.04916795     0.40200
H1362       H  0.48554689  0.94942240  0.06299656     0.35100
C1363       C  0.53327314  0.08918826  0.02629838    -0.26600
C1364       C  0.52278394  0.12138542  0.04484228    -0.14700
C1365       C  0.51462614  0.15301478  0.02275165     0.35900
C1366       C  0.51653272  0.15083283  0.98316353    -0.26100
C1367       C  0.52660303  0.11781575  0.96474089    -0.15300
C1368       C  0.53573882  0.08714501  0.98766907     0.37000
N1369       N  0.54654034  0.05245148  0.97267370    -0.89600
H1370       H  0.53956844  0.06462329  0.04233305     0.18100
H1371       H  0.50901723  0.17479168  0.96679759     0.18100
N1372       N  0.50476461  0.18763444  0.03922288    -0.88600
H1373       H  0.57236539  0.05554880  0.96019372     0.35500
H1374       H  0.52727983  0.04528222  0.95265849     0.40600
H1375       H  0.50604253  0.18613729  0.06814399     0.40200
H1376       H  0.47722528  0.19313664  0.03221330     0.35100
C1377       C  0.96309986  0.84216355  0.58476191    -0.26600
C1378       C  0.93345982  0.82643513  0.56638535    -0.14700
C1379       C  0.91412047  0.79710453  0.58434330     0.35900
C1380       C  0.92526140  0.78522221  0.62035907    -0.26100
C1381       C  0.95405685  0.80326485  0.63953968    -0.15300
C1382       C  0.97229827  0.83304785  0.62071728     0.37000
N1383       N  0.00013926  0.85606409  0.63686416    -0.89600
H1384       H  0.97835020  0.86432106  0.57232955     0.18100
H1385       H  0.91054711  0.76272952  0.63376341     0.18100
N1386       N  0.88348599  0.77876040  0.56700179    -0.88600
H1387       H  0.02219889  0.83991333  0.64549709     0.35500
H1388       H  0.98889081  0.87151338  0.65858422     0.40600
H1389       H  0.87861285  0.78930479  0.54042631     0.40200
H1390       H  0.85981594  0.78430230  0.58285274     0.35100
C1391       C  0.84743754  0.87726830  0.57853327    -0.26600
C1392       C  0.88258793  0.88892222  0.56620437    -0.14700
C1393       C  0.90447494  0.91057067  0.58971873     0.35900
C1394       C  0.89110251  0.92008250  0.62488421    -0.26100
C1395       C  0.85614103  0.90797149  0.63824338    -0.15300
C1396       C  0.83404835  0.88635892  0.61417348     0.37000
N1397       N  0.79806698  0.87335420  0.62478715    -0.89600
H1398       H  0.83061900  0.86021566  0.56059445     0.18100
H1399       H  0.90910217  0.93663762  0.64211014     0.18100
N1400       N  0.94107074  0.92170363  0.57864898    -0.88600
H1401       H  0.78154124  0.89607593  0.63144000     0.35500
H1402       H  0.80075176  0.85642738  0.64820284     0.40600
H1403       H  0.95917885  0.91541434  0.60034685     0.40200
H1404       H  0.94220071  0.95015774  0.57577259     0.35100
C1405       C  0.89161906  0.90468596  0.36203389    -0.26600
C1406       C  0.85458629  0.89697432  0.35254272    -0.14700
C1407       C  0.83097031  0.88271453  0.38061962     0.35900
C1408       C  0.84530836  0.87673957  0.41695945    -0.26100
C1409       C  0.88181463  0.88725284  0.42624882    -0.15300
C1410       C  0.90406511  0.90315592  0.39849061     0.37000
N1411       N  0.93888956  0.91962653  0.40722496    -0.89600
H1412       H  0.91080893  0.91544563  0.34141521     0.18100
H1413       H  0.82800626  0.86405546  0.43810964     0.18100
N1414       N  0.79290649  0.87465487  0.37250224    -0.88600
H1415       H  0.93664053  0.94795502  0.40211987     0.35500
H1416       H  0.95859117  0.90966205  0.38845170     0.40600
H1417       H  0.77974403  0.89965091  0.36647756     0.40200
H1418       H  0.77963380  0.86381586  0.39601198     0.35100
C1419       C  0.91066285  0.80361181  0.41092556    -0.26600
C1420       C  0.93603721  0.82792378  0.42778535    -0.14700
C1421       C  0.97039332  0.83501383  0.41006545     0.35900
C1422       C  0.97834646  0.81752167  0.37670394    -0.26100
C1423       C  0.95211019  0.79563753  0.35834679    -0.15300
C1424       C  0.91828901  0.78748189  0.37608215     0.37000
N1425       N  0.89139192  0.76449908  0.35815159    -0.89600
H1426       H  0.88439167  0.79813806  0.42456581     0.18100
H1427       H  0.00500897  0.82284916  0.36378603     0.18100
N1428       N  0.99788982  0.85935689  0.42532269    -0.88600
H1429       H  0.86752637  0.76219639  0.37457065     0.35500
H1430       H  0.90262698  0.73798649  0.35635216     0.40600
H1431       H  0.98502554  0.88065109  0.43978584     0.40200
H1432       H  0.01219827  0.87254243  0.40370384     0.35100
C1433       C  0.93380182  0.17326003  0.61474440    -0.26600
C1434       C  0.94110782  0.14935890  0.64474251    -0.14700
C1435       C  0.93911529  0.11069633  0.63846372     0.35900
C1436       C  0.93467703  0.09725011  0.60245029    -0.26100
C1437       C  0.92661085  0.12056776  0.57260454    -0.15300
C1438       C  0.92570377  0.15912881  0.57887927     0.37000
N1439       N  0.91711136  0.18373071  0.54874333    -0.89600
H1440       H  0.93541348  0.20277718  0.61896693     0.18100
H1441       H  0.93673320  0.06797505  0.59784716     0.18100
N1442       N  0.94209140  0.08492154  0.66887365    -0.88600
H1443       H  0.91765813  0.21109904  0.55775661     0.35500
H1444       H  0.88988687  0.17829720  0.54057599     0.40600
H1445       H  0.94028070  0.05769156  0.65956758     0.40200
H1446       H  0.91923271  0.08912134  0.68628540     0.35100
C1447       C  0.85480397  0.02169249  0.61758864    -0.26600
C1448       C  0.83378280  0.04757361  0.63710834    -0.14700
C1449       C  0.82679926  0.08221628  0.62044405     0.35900
C1450       C  0.84256730  0.09032068  0.58534080    -0.26100
C1451       C  0.86657633  0.06503494  0.56768502    -0.15300
C1452       C  0.87326296  0.03104686  0.58511088     0.37000
N1453       N  0.90208989  0.00740533  0.57261153    -0.89600
H1454       H  0.86048154  0.99489666  0.62976011     0.18100
H1455       H  0.83791126  0.11716734  0.57285673     0.18100
N1456       N  0.80569609  0.10996791  0.63911282    -0.88600
H1457       H  0.88998998  0.98167387  0.56808326     0.35500
H1458       H  0.92123632  0.00481101  0.59418194     0.40600
H1459       H  0.81838101  0.11544408  0.66455814     0.40200
H1460       H  0.77923234  0.09939429  0.64439997     0.35100
C1461       C  0.93402941  0.15462751  0.42294194    -0.26600
C1462       C  0.93863472  0.11723585  0.43294884    -0.14700
C1463       C  0.95380985  0.09285800  0.40675146     0.35900
C1464       C  0.96146462  0.10545706  0.37064275    -0.26100
C1465       C  0.95585821  0.14259450  0.35969239    -0.15300
C1466       C  0.94250864  0.16745529  0.38662089     0.37000
N1467       N  0.93786717  0.20562634  0.37748494    -0.89600
H1468       H  0.92259714  0.17368695  0.44304442     0.18100
H1469       H  0.97212378  0.08570224  0.35081956     0.18100
N1470       N  0.96055928  0.05495292  0.41671219    -0.88600
H1471       H  0.95417200  0.22107326  0.39563723     0.35500
H1472       H  0.91014002  0.21256985  0.38222023     0.40600
H1473       H  0.97907703  0.05415862  0.43890909     0.40200
H1474       H  0.97291516  0.04071671  0.39472845     0.35100
C1475       C  0.83595111  0.08052420  0.37576604    -0.26600
C1476       C  0.84522431  0.04607379  0.36048282    -0.14700
C1477       C  0.86665891  0.02156900  0.38224861     0.35900
C1478       C  0.88178586  0.03279646  0.41537965    -0.26100
C1479       C  0.87425941  0.06723262  0.43054772    -0.15300
C1480       C  0.84973739  0.09107062  0.41115547     0.37000
N1481       N  0.83815518  0.12516799  0.42770992    -0.89600
H1482       H  0.81870402  0.09931051  0.36000266     0.18100
H1483       H  0.90089258  0.01414829  0.42831263     0.18100
N1484       N  0.87296037  0.98413368  0.37210006    -0.88600
H1485       H  0.81943022  0.13885597  0.41037881     0.35500
H1486       H  0.86124773  0.14228738  0.42983715     0.40600
H1487       H  0.89170387  0.98304070  0.35000836     0.40200
H1488       H  0.84750693  0.97232261  0.36522287     0.35100
C1489       C  0.85088411  0.95396710  0.50142822    -0.26600
C1490       C  0.88531955  0.93603104  0.49627070    -0.14700
C1491       C  0.91710390  0.95847378  0.49248946     0.35900
C1492       C  0.91423854  0.99711841  0.49295540    -0.26100
C1493       C  0.88029058  0.01556346  0.49811020    -0.15300
C1494       C  0.84797945  0.99330818  0.50249344     0.37000
N1495       N  0.81216978  0.00942428  0.50871672    -0.89600
H1496       H  0.82615774  0.93737444  0.50505166     0.18100
H1497       H  0.93908763  0.01307775  0.48824954     0.18100
N1498       N  0.95304819  0.94211368  0.48918817    -0.88600
H1499       H  0.79547916  0.00246786  0.48614850     0.35500
H1500       H  0.81376315  0.03818243  0.50905608     0.40600
H1501       H  0.96566807  0.95233192  0.46508945     0.40200
H1502       H  0.96901290  0.95116508  0.51152837     0.35100
C1503       C  0.17522193  0.01637780  0.61809680    -0.26600
C1504       C  0.19946321  0.04134141  0.63541297    -0.14700
C1505       C  0.21109076  0.07291334  0.61568053     0.35900
C1506       C  0.19640195  0.07968789  0.57993318    -0.26100
C1507       C  0.16920844  0.05640223  0.56446013    -0.15300
C1508       C  0.15864257  0.02419449  0.58421087     0.37000
N1509       N  0.12787221  0.00139999  0.57386979    -0.89600
H1510       H  0.16623411  0.99166949  0.63263733     0.18100
H1511       H  0.20422226  0.10460118  0.56509368     0.18100
N1512       N  0.23616488  0.09866541  0.63243284    -0.88600
H1513       H  0.13828416  0.97618533  0.56459554     0.35500
H1514       H  0.11187119  0.01348960  0.55314632     0.40600
H1515       H  0.22268636  0.11018171  0.65537975     0.40200
H1516       H  0.24187455  0.12043452  0.61412436     0.35100
C1517       C  0.10222273  0.09286523  0.59947746    -0.26600
C1518       C  0.11492042  0.11620998  0.57123504    -0.14700
C1519       C  0.12095614  0.15411798  0.57945545     0.35900
C1520       C  0.11234081  0.16752221  0.61525800    -0.26100
C1521       C  0.10025614  0.14352890  0.64354249    -0.15300
C1522       C  0.09770597  0.10528662  0.63579079     0.37000
N1523       N  0.09029532  0.07901512  0.66500322    -0.89600
H1524       H  0.09644091  0.06433290  0.59335999     0.18100
H1525       H  0.11459725  0.19679567  0.62075253     0.18100
N1526       N  0.13550184  0.17974523  0.55247809    -0.88600
H1527       H  0.11280886  0.07977216  0.68317918     0.35500
H1528       H  0.08920506  0.05214281  0.65461730     0.40600
H1529       H  0.14241065  0.16671174  0.52764920     0.40200
H1530       H  0.16037712  0.19010390  0.56295805     0.35100
C1531       C  0.12950575  0.14928693  0.41728207    -0.26600
C1532       C  0.10503170  0.12334981  0.43355509    -0.14700
C1533       C  0.07164955  0.11519243  0.41498071     0.35900
C1534       C  0.06409547  0.13217276  0.38104770    -0.26100
C1535       C  0.08984549  0.15533596  0.36287424    -0.15300
C1536       C  0.12239673  0.16510777  0.38208370     0.37000
N1537       N  0.14932754  0.18941092  0.36597432    -0.89600
H1538       H  0.15525721  0.15576719  0.43118669     0.18100
H1539       H  0.03871222  0.12449438  0.36718358     0.18100
N1540       N  0.04646180  0.08702006  0.42729263    -0.88600
H1541       H  0.13648697  0.21472020  0.36064894     0.35500
H1542       H  0.15810045  0.17825927  0.34070039     0.40600
H1543       H  0.02276268  0.10037244  0.43689675     0.40200
H1544       H  0.05715913  0.07120374  0.44894616     0.35100
C1545       C  0.13446854  0.05438841  0.39799437    -0.26600
C1546       C  0.15909855  0.06298156  0.42647097    -0.14700
C1547       C  0.19752100  0.06425001  0.41840244     0.35900
C1548       C  0.21016607  0.05708180  0.38181658    -0.26100
C1549       C  0.18495123  0.04969615  0.35313273    -0.15300
C1550       C  0.14657901  0.04995379  0.36147114     0.37000
N1551       N  0.11955894  0.04471991  0.33288533    -0.89600
H1552       H  0.10531395  0.05132158  0.40396966     0.18100
H1553       H  0.23962092  0.05614352  0.37598260     0.18100
N1554       N  0.22348112  0.07216648  0.44745134    -0.88600
H1555       H  0.10203698  0.06767748  0.33264593     0.35500
H1556       H  0.10359778  0.02155911  0.33973252     0.40600
H1557       H  0.21855067  0.09912450  0.45639386     0.40200
H1558       H  0.25060301  0.07159927  0.43715207     0.35100
C1559       C  0.00019870  0.14507329  0.49605057    -0.26600
C1560       C  0.98074752  0.11318281  0.50777678    -0.14700
C1561       C  0.00230448  0.08317100  0.52187863     0.35900
C1562       C  0.04108992  0.08527986  0.52202030    -0.26100
C1563       C  0.06062892  0.11573939  0.50792201    -0.15300
C1564       C  0.03964325  0.14682136  0.49610413     0.37000
N1565       N  0.05715534  0.18048227  0.48429846    -0.89600
H1566       H  0.98466708  0.16868989  0.48619485     0.18100
H1567       H  0.05642946  0.06134008  0.53152699     0.18100
N1568       N  0.98661517  0.04926101  0.53559708    -0.88600
H1569       H  0.05111230  0.18440788  0.45618518     0.35500
H1570       H  0.08591736  0.17869867  0.48662040     0.40600
H1571       H  0.95798552  0.04897229  0.53458141     0.40200
H1572       H  0.99582705  0.02794366  0.51840711     0.35100
C1573       C  0.07498160  0.79518684  0.61568630    -0.26600
C1574       C  0.10064510  0.80201728  0.64371762    -0.14700
C1575       C  0.13771391  0.80882055  0.63348115     0.35900
C1576       C  0.14627144  0.81536348  0.59588105    -0.26100
C1577       C  0.11811503  0.81744091  0.56865330    -0.15300
C1578       C  0.08476043  0.79882184  0.57828020     0.37000
N1579       N  0.06788656  0.77263360  0.55422078    -0.89600
H1580       H  0.04842470  0.78298505  0.62285682     0.18100
H1581       H  0.17477011  0.82069977  0.58839937     0.18100
N1582       N  0.16665779  0.81051135  0.66049258    -0.88600
H1583       H  0.04056699  0.78055792  0.54925445     0.35500
H1584       H  0.08369427  0.76842211  0.53028688     0.40600
H1585       H  0.16790459  0.78507107  0.67422307     0.40200
H1586       H  0.15978968  0.83076018  0.67992020     0.35100
C1587       C  0.20215802  0.88662571  0.57645050    -0.26600
C1588       C  0.16379219  0.88802107  0.56879976    -0.14700
C1589       C  0.13965795  0.89958742  0.59706089     0.35900
C1590       C  0.15335128  0.90813220  0.63210796    -0.26100
C1591       C  0.19138200  0.90604596  0.64062357    -0.15300
C1592       C  0.21619552  0.89511061  0.61222933     0.37000
N1593       N  0.25523270  0.89290312  0.61947804    -0.89600
H1594       H  0.22089766  0.87687532  0.55507933     0.18100
H1595       H  0.13341187  0.91630122  0.65310249     0.18100
N1596       N  0.10069437  0.90146403  0.59082077    -0.88600
H1597       H  0.26963544  0.88562481  0.59534257     0.35500
H1598       H  0.25926070  0.87133017  0.63840857     0.40600
H1599       H  0.08749297  0.88393146  0.60987498     0.40200
H1600       H  0.09196902  0.92842700  0.59615898     0.35100
C1601       C  0.10777232  0.78113023  0.37966165    -0.26600
C1602       C  0.09296179  0.80693735  0.35448580    -0.14700
C1603       C  0.08740460  0.84375378  0.36702731     0.35900
C1604       C  0.09393561  0.85275159  0.40422278    -0.26100
C1605       C  0.11034660  0.82779236  0.42878640    -0.15300
C1606       C  0.11696557  0.79115005  0.41644186     0.37000
N1607       N  0.13307003  0.76349037  0.44012038    -0.89600
H1608       H  0.11186569  0.75286442  0.37092187     0.18100
H1609       H  0.08760609  0.88028484  0.41385671     0.18100
N1610       N  0.07567290  0.87236433  0.34181568    -0.88600
H1611       H  0.11338093  0.74261114  0.44384293     0.35500
H1612       H  0.13887780  0.77382766  0.46645096     0.40600
H1613       H  0.09690753  0.87614544  0.32230481     0.40200
H1614       H  0.07259437  0.89754811  0.35553863     0.35100
C1615       C  0.21181643  0.87411758  0.37864858    -0.26600
C1616       C  0.19606214  0.90455519  0.36030520    -0.14700
C1617       C  0.16829979  0.92513621  0.37881517     0.35900
C1618       C  0.15480721  0.91354823  0.41293698    -0.26100
C1619       C  0.16926758  0.88279200  0.43093423    -0.15300
C1620       C  0.19862004  0.86305506  0.41409807     0.37000
N1621       N  0.21470393  0.83196945  0.43292662    -0.89600
H1622       H  0.23340532  0.85841847  0.36497858     0.18100
H1623       H  0.13144227  0.92812655  0.42435674     0.18100
N1624       N  0.15342069  0.95832171  0.36322986    -0.88600
H1625       H  0.23623858  0.82082499  0.41704226     0.35500
H1626       H  0.19442256  0.81150848  0.43508954     0.40600
H1627       H  0.15769403  0.97931413  0.38250732     0.40200
H1628       H  0.12483748  0.95487439  0.36002568     0.35100
C1629       C  0.12792184  0.95140928  0.48966613    -0.26600
C1630       C  0.16058550  0.93207674  0.49761372    -0.14700
C1631       C  0.19362518  0.95288587  0.50143494     0.35900
C1632       C  0.19219746  0.99235111  0.50047388    -0.26100
C1633       C  0.15874529  0.01127112  0.49311935    -0.15300
C1634       C  0.12686585  0.98993040  0.48612968     0.37000
N1635       N  0.09250464  0.00752489  0.47706036    -0.89600
H1636       H  0.10305484  0.93613044  0.48404427     0.18100
H1637       H  0.21709980  0.00827561  0.50526923     0.18100
N1638       N  0.22833088  0.93410142  0.50573064    -0.88600
H1639       H  0.08380106  0.99754380  0.45133122     0.35500
H1640       H  0.07273328  0.99980228  0.49694290     0.40600
H1641       H  0.24997187  0.95317486  0.50764229     0.40200
H1642       H  0.23304462  0.91896807  0.48150663     0.35100
C1643       C  0.04265862  0.80190614  0.48224839    -0.26600
C1644       C  0.06250075  0.83193174  0.49774557    -0.14700
C1645       C  0.04147651  0.86239850  0.50981776     0.35900
C1646       C  0.00284648  0.86157781  0.50861709    -0.26100
C1647       C  0.98282850  0.83027990  0.49828984    -0.15300
C1648       C  0.00328107  0.79973696  0.48446592     0.37000
N1649       N  0.98538339  0.76634008  0.47292678    -0.89600
H1650       H  0.05780361  0.77875613  0.47095255     0.18100
H1651       H  0.98802180  0.88640750  0.51592612     0.18100
N1652       N  0.05879959  0.89558262  0.52186125    -0.88600
H1653       H  0.99009873  0.76327804  0.44444122     0.35500
H1654       H  0.95675013  0.76791644  0.47691191     0.40600
H1655       H  0.04795844  0.90142657  0.54811584     0.40200
H1656       H  0.04933896  0.91672896  0.50448790     0.35100
loop_ 
_geom_bond_atom_site_label_1 
_geom_bond_atom_site_label_2 
_geom_bond_distance 
_geom_bond_site_symmetry_2 
_ccdc_geom_bond_type 
C1            C2   1.442       .  A
C1            C6   1.454       .  A
C1         C1577   1.539       .  S
C2            C3   1.421       .  A
C2         C1644   1.522       .  S
C3            C4   1.428       .  A
C3         C1605   1.504       .  S
C4            C5   1.418       .  A
C4         C1619   1.487       .  S
C5            C6   1.421       .  A
C5         C1630   1.522       .  S
C6         C1588   1.504       .  S
C7            C8   1.421       .  A
C7           C12   1.434       .  A
C7         C1546   1.497       .  S
C8            C9   1.420       .  A
C8         C1633   1.516       .  S
C9           C10   1.431       .  A
C9         C1507   1.494       .  S
C10          C11   1.418       .  A
C10        C1518   1.497       .  S
C11          C12   1.422       .  A
C11        C1563   1.519       .  S
C12        C1532   1.498       .  S
C13          C14   1.431       .  A
C13          C18   1.433       .  A
C13        C1462   1.498       .  S
C14          C15   1.426       .  A
C14        C1560   1.524       .  S
C15          C16   1.437       .  A
C15        C1437   1.506       .  S
C16          C17   1.425       .  A
C16        C1451   1.494       .  S
C17          C18   1.419       .  A
C17        C1493   1.527       .  S
C18        C1479   1.502       .  S
C19          C20   1.432       .  A
C19          C24   1.429       .  A
C19        C1392   1.490       .  S
C20          C21   1.421       .  A
C20        C1378   1.504       .  S
C21          C22   1.416       .  A
C21        C1647   1.513       .  S
C22          C23   1.430       .  A
C22        C1420   1.491       .  S
C23          C24   1.425       .  A
C23        C1409   1.500       .  S
C24        C1490   1.523       .  S
C25          C26   1.421       .  A
C25          C30   1.437       .  A
C25        C1336   1.496       .  S
C26          C27   1.421       .  A
C26        C1364   1.520       .  S
C27          C28   1.428       .  A
C27        C1311   1.489       .  S
C28          C29   1.415       .  A
C28        C1294   1.488       .  S
C29          C30   1.421       .  A
C29        C1353   1.526       .  S
C30        C1325   1.492       .  S
C31          C32   1.437       .  A
C31          C36   1.417       .  A
C31        C1227   1.475       .  S
C32          C33   1.416       .  A
C32        C1241   1.508       .  S
C33          C34   1.429       .  A
C33        C1367   1.532       .  S
C34          C35   1.436       .  A
C34        C1266   1.490       .  S
C35          C36   1.410       .  A
C35        C1252   1.494       .  S
C36        C1283   1.523       .  S
C37          C38   1.431       .  A
C37          C42   1.446       .  A
C37        C1182   1.536       .  S
C38          C39   1.426       .  A
C38        C1350   1.531       .  S
C39          C40   1.457       .  A
C39        C1154   1.497       .  S
C40          C41   1.441       .  A
C40        C1168   1.553       .  S
C41          C42   1.438       .  A
C41        C1210   1.542       .  S
C42        C1196   1.505       .  S
C43          C44   1.413       .  A
C43          C48   1.429       .  A
C43        C1129   1.490       .  S
C44          C45   1.432       .  A
C44        C1280   1.524       .  S
C45          C46   1.439       .  A
C45        C1098   1.518       .  S
C46          C47   1.428       .  A
C46        C1115   1.503       .  S
C47          C48   1.426       .  A
C47        C1213   1.523       .  S
C48        C1140   1.499       .  S
C49          C50   1.429       .  A
C49          C54   1.437       .  A
C49        C1045   1.490       .  S
C50          C51   1.429       .  A
C50        C1087   1.526       .  S
C51          C52   1.437       .  A
C51        C1014   1.513       .  S
C52          C53   1.430       .  A
C52        C1031   1.500       .  S
C53          C54   1.424       .  A
C53        C1070   1.518       .  S
C54        C1056   1.516       .  S
C55          C56   1.430       .  A
C55          C60   1.422       .  A
C55         C972   1.510       .  S
C56          C57   1.418       .  A
C56         C986   1.479       .  S
C57          C58   1.427       .  A
C57        C1073   1.528       .  S
C58          C59   1.447       .  A
C58         C961   1.522       .  S
C59          C60   1.435       .  A
C59         C944   1.493       .  S
C60        C1000   1.535       .  S
C61          C62   1.427       .  A
C61          C66   1.430       .  A
C61         C874   1.496       .  S
C62          C63   1.430       .  A
C62        C1003   1.522       .  S
C63          C64   1.442       .  A
C63         C902   1.501       .  S
C64          C65   1.434       .  A
C64         C916   1.531       .  S
C65          C66   1.423       .  A
C65         C933   1.504       .  S
C66         C888   1.510       .  S
C67          C68   1.430       .  A
C67          C72   1.440       .  A
C67         C818   1.484       .  S
C68          C69   1.421       .  A
C68        C1084   1.541       .  S
C69          C70   1.440       .  A
C69         C846   1.496       .  S
C70          C71   1.428       .  A
C70         C863   1.507       .  S
C71          C72   1.427       .  A
C71         C930   1.516       .  S
C72         C835   1.526       .  S
O73         Zr85   2.519       .  S
O73          C75   1.302       .  A
O74        Zr111   2.371       .  S
O74          C75   1.279       .  A
C75        C1591   1.499       .  S
O76         Zr88   2.413       .  S
O76          C78   1.274       .  A
O77        Zr112   2.449       .  S
O77          C78   1.281       .  A
C78         C290   1.471       .  S
O79         Zr88   2.382       .  S
O79          C81   1.277       .  A
O80        Zr111   2.471       .  S
O80          C81   1.291       .  A
C81         C633   1.472       .  S
O82         Zr85   2.500       .  S
O82          C84   1.298       .  A
O83        Zr112   2.347       .  S
O83          C84   1.270       .  A
C84        C1126   1.488       .  S
Zr85         O86   2.434       .  S
Zr85         O87   2.436       .  S
Zr85         O91   2.389       .  S
Zr85         O92   2.385       .  S
Zr85        O115   2.385       .  S
Zr85        O117   2.367       .  S
O86         H129   0.990       .  S
O87         H128   0.990       .  S
O87         H132   0.990       .  S
Zr88         O89   2.435       .  S
Zr88         O90   2.429       .  S
Zr88         O92   2.359       .  S
Zr88         O91   2.372       .  S
Zr88        O116   2.366       .  S
Zr88        O118   2.354       .  S
O89         H130   0.989       .  S
O89         H133   0.988       .  S
O90         H123   0.990       .  S
O91        Zr111   2.389       .  S
O92        Zr112   2.387       .  S
O92         H119   0.965       .  S
O93        Zr105   2.512       .  S
O93          C95   1.301       .  A
O94        Zr112   2.345   1_545  S
O94          C95   1.274       .  A
C95        C1255   1.483       .  S
O96        Zr108   2.358       .  S
O96          C98   1.273       .  A
O97        Zr111   2.484   1_545  S
O97          C98   1.293       .  A
C98         C143   1.469       .  S
O99        Zr108   2.374       .  S
O99         C101   1.277       .  A
O100       Zr112   2.467   1_545  S
O100        C101   1.290       .  A
C101        C470   1.466       .  S
O102       Zr105   2.497       .  S
O102        C104   1.298       .  A
O103       Zr111   2.377   1_545  S
O103        C104   1.281       .  A
C104       C1504   1.485       .  S
Zr105       O106   2.434       .  S
Zr105       O107   2.434       .  S
Zr105       O113   2.378       .  S
Zr105       O114   2.390       .  S
Zr105       O117   2.380   1_545  S
Zr105       O115   2.372   1_545  S
O106        H126   0.990       .  S
O106        H131   0.990       .  S
O107        H127   0.990       .  S
Zr108       O109   2.430       .  S
Zr108       O110   2.433       .  S
Zr108       O114   2.347       .  S
Zr108       O113   2.343       .  S
Zr108       O118   2.348   1_545  S
Zr108       O116   2.356   1_545  S
O109        H125   0.990       .  S
O110        H124   0.990       .  S
O110        H134   0.990       .  S
Zr111       O114   2.375   1_565  S
Zr111       O116   2.351       .  S
Zr111       O117   2.417       .  S
Zr112       O113   2.373   1_565  S
Zr112       O115   2.402       .  S
Zr112       O118   2.346       .  S
O113        H121   0.966       .  S
O116        H120   0.967       .  S
O117        H122   0.964       .  S
O135       Zr147   2.506       .  S
O135        C137   1.300       .  A
O136       Zr173   2.365       .  S
O136        C137   1.277       .  A
C137       C1521   1.489       .  S
O138       Zr150   2.431       .  S
O138        C140   1.279       .  A
O139       Zr174   2.430       .  S
O139        C140   1.280       .  A
C140        C473   1.467       .  S
O141       Zr150   2.426       .  S
O141        C143   1.278       .  A
O142       Zr173   2.454       .  S
O142        C143   1.282       .  A
O144       Zr147   2.509       .  S
O144        C146   1.299       .  A
O145       Zr174   2.344       .  S
O145        C146   1.271       .  A
C146       C1042   1.493       .  S
Zr147       O148   2.435       .  S
Zr147       O149   2.436       .  S
Zr147       O153   2.393       .  S
Zr147       O154   2.390       .  S
Zr147       O177   2.381       .  S
Zr147       O179   2.383       .  S
O148        H191   0.990       .  S
O149        H190   0.990       .  S
O149        H194   0.990       .  S
Zr150       O151   2.430       .  S
Zr150       O152   2.421       .  S
Zr150       O154   2.372       .  S
Zr150       O153   2.367       .  S
Zr150       O178   2.384       .  S
Zr150       O180   2.355       .  S
O151        H192   0.989       .  S
O151        H195   0.990       .  S
O152        H185   0.990       .  S
O153       Zr173   2.388       .  S
O154       Zr174   2.395       .  S
O154        H181   0.966       .  S
O155       Zr167   2.522       .  S
O155        C157   1.303       .  A
O156       Zr174   2.348   1_655  S
O156        C157   1.272       .  A
C157        C849   1.489       .  S
O158       Zr170   2.379       .  S
O158        C160   1.278       .  A
O159       Zr173   2.465   1_655  S
O159        C160   1.288       .  A
C160        C701   1.478       .  S
O161       Zr170   2.420       .  S
O161        C163   1.274       .  A
O162       Zr174   2.477   1_655  S
O162        C163   1.283       .  A
C163        C591   1.486       .  S
O164       Zr167   2.528       .  S
O164        C166   1.304       .  A
O165       Zr173   2.360   1_655  S
O165        C166   1.276       .  A
C166       C1434   1.500       .  S
Zr167       O168   2.434       .  S
Zr167       O169   2.435       .  S
Zr167       O175   2.387       .  S
Zr167       O176   2.382       .  S
Zr167       O179   2.385   1_655  S
Zr167       O177   2.382   1_655  S
O168        H188   0.990       .  S
O168        H193   0.990       .  S
O169        H189   0.990       .  S
Zr170       O171   2.414       .  S
Zr170       O172   2.429       .  S
Zr170       O176   2.359       .  S
Zr170       O175   2.347       .  S
Zr170       O180   2.344   1_655  S
Zr170       O178   2.350   1_655  S
O171        H187   0.990       .  S
O172        H186   0.990       .  S
O172        H196   0.990       .  S
Zr173       O176   2.375   1_455  S
Zr173       O178   2.367       .  S
Zr173       O179   2.410       .  S
Zr174       O175   2.372   1_455  S
Zr174       O177   2.401       .  S
Zr174       O180   2.354       .  S
O175        H183   0.965       .  S
O178        H182   0.966       .  S
O179        H184   0.965       .  S
O197       Zr209   2.527       .  S
O197        C199   1.305       .  A
O198       Zr235   2.374       .  S
O198        C199   1.278       .  A
C199       C1602   1.504       .  S
O200       Zr212   2.432       .  S
O200        C202   1.281       .  A
O201       Zr236   2.463       .  S
O201        C202   1.284       .  A
C202        C270   1.485       .  S
O203       Zr212   2.423       .  S
O203        C205   1.280       .  A
O204       Zr235   2.466       .  S
O204        C205   1.286       .  A
C205        C385   1.476       .  S
O206       Zr209   2.530       .  S
O206        C208   1.304       .  A
O207       Zr236   2.330       .  S
O207        C208   1.270       .  A
C208        C947   1.489       .  S
Zr209       O210   2.435       .  S
Zr209       O211   2.433       .  S
Zr209       O215   2.390       .  S
Zr209       O216   2.391       .  S
Zr209       O239   2.375       .  S
Zr209       O241   2.373       .  S
O210        H253   0.990       .  S
O211        H252   0.990       .  S
O211        H256   0.990       .  S
Zr212       O213   2.423       .  S
Zr212       O214   2.427       .  S
Zr212       O216   2.366       .  S
Zr212       O215   2.359       .  S
Zr212       O240   2.380       .  S
Zr212       O242   2.362       .  S
O213        H254   0.989       .  S
O213        H257   0.987       .  S
O214        H247   0.990       .  S
O215       Zr235   2.381       .  S
O216       Zr236   2.390       .  S
O216        H243   0.966       .  S
O217       Zr229   2.492       .  S
O217        C219   1.297       .  A
O218       Zr236   2.376   1_655  S
O218        C219   1.280       .  A
C219        C877   1.493       .  S
O220       Zr232   2.417       .  S
O220        C222   1.283       .  A
O221       Zr235   2.456   1_655  S
O221        C222   1.288       .  A
C222        C538   1.474       .  S
O223       Zr232   2.436       .  S
O223        C225   1.280       .  A
O224       Zr236   2.434   1_655  S
O224        C225   1.276       .  A
C225        C760   1.467       .  S
O226       Zr229   2.486       .  S
O226        C228   1.295       .  A
O227       Zr235   2.372   1_655  S
O227        C228   1.280       .  A
C228       C1423   1.477       .  S
Zr229       O230   2.435       .  S
Zr229       O231   2.434       .  S
Zr229       O237   2.385       .  S
Zr229       O238   2.391       .  S
Zr229       O241   2.373   1_655  S
Zr229       O239   2.371   1_655  S
O230        H250   0.990       .  S
O230        H255   0.990       .  S
O231        H251   0.990       .  S
Zr232       O233   2.428       .  S
Zr232       O234   2.417       .  S
Zr232       O238   2.361       .  S
Zr232       O237   2.360       .  S
Zr232       O242   2.361   1_655  S
Zr232       O240   2.365   1_655  S
O233        H249   0.990       .  S
O234        H248   0.989       .  S
O234        H258   0.987       .  S
Zr235       O238   2.385   1_455  S
Zr235       O240   2.364       .  S
Zr235       O241   2.410       .  S
Zr236       O237   2.393   1_455  S
Zr236       O239   2.398       .  S
Zr236       O242   2.366       .  S
O237        H245   0.966       .  S
O240        H244   0.965       .  S
O241        H246   0.964       .  S
O259       Zr271   2.371       .  S
O259        C261   1.276       .  A
O260       Zr297   2.457   1_554  S
O260        C261   1.280       .  A
C261        C394   1.479       .  S
O262       Zr274   2.517       .  S
O262        C264   1.301       .  A
O263       Zr298   2.390   1_554  S
O263        C264   1.283       .  A
C264        C958   1.498       .  S
O265       Zr274   2.520       .  S
O265        C267   1.303       .  A
O266       Zr297   2.383   1_554  S
O266        C267   1.279       .  A
C267       C1199   1.499       .  S
O268       Zr271   2.405       .  S
O268        C270   1.281       .  A
O269       Zr298   2.485   1_554  S
O269        C270   1.295       .  A
Zr271       O272   2.412       .  S
Zr271       O273   2.437       .  S
Zr271       O277   2.360       .  S
Zr271       O278   2.367       .  S
Zr271       O301   2.329   1_554  S
Zr271       O303   2.357   1_554  S
O272        H315   0.990       .  S
O273        H314   0.990       .  S
O273        H318   0.990       .  S
Zr274       O275   2.434       .  S
Zr274       O276   2.433       .  S
Zr274       O278   2.391       .  S
Zr274       O277   2.383       .  S
Zr274       O302   2.381   1_554  S
Zr274       O304   2.377   1_554  S
O275        H316   0.990       .  S
O275        H319   0.990       .  S
O276        H309   0.990       .  S
O277       Zr297   2.386   1_554  S
O278       Zr298   2.378   1_554  S
O278        H305   0.966       .  S
O279       Zr291   2.424       .  S
O279        C281   1.276       .  A
O280       Zr298   2.439       .  S
O280        C281   1.279       .  A
C281        C642   1.467       .  S
O282       Zr294   2.509       .  S
O282        C284   1.300       .  A
O283       Zr297   2.370       .  S
O283        C284   1.277       .  A
C284       C1143   1.494       .  S
O285       Zr294   2.490       .  S
O285        C287   1.295       .  A
O286       Zr298   2.394       .  S
O286        C287   1.284       .  A
C287       C1028   1.499       .  S
O288       Zr291   2.426       .  S
O288        C290   1.284       .  A
O289       Zr297   2.445       .  S
O289        C290   1.286       .  A
Zr291       O292   2.436       .  S
Zr291       O293   2.419       .  S
Zr291       O299   2.367       .  S
Zr291       O300   2.373       .  S
Zr291       O303   2.369       .  S
Zr291       O301   2.364       .  S
O292        H312   0.989       .  S
O292        H317   0.990       .  S
O293        H313   0.990       .  S
Zr294       O295   2.435       .  S
Zr294       O296   2.437       .  S
Zr294       O300   2.388       .  S
Zr294       O299   2.390       .  S
Zr294       O304   2.391       .  S
Zr294       O302   2.376       .  S
O295        H311   0.990       .  S
O296        H310   0.990       .  S
O296        H320   0.990       .  S
Zr297       O300   2.389       .  S
Zr297       O302   2.411       .  S
Zr297       O303   2.374       .  S
Zr298       O299   2.412       .  S
Zr298       O301   2.366       .  S
Zr298       O304   2.405       .  S
O299        H307   0.964       .  S
O302        H306   0.965       .  S
O303        H308   0.965       .  S
O321       Zr333   2.380       .  S
O321        C323   1.278       .  A
O322       Zr359   2.462       .  S
O322        C323   1.291       .  A
C323        C414   1.458       .  S
O324       Zr336   2.510       .  S
O324        C326   1.300       .  A
O325       Zr360   2.388       .  S
O325        C326   1.282       .  A
C326        C975   1.500       .  S
O327       Zr336   2.523       .  S
O327        C329   1.303       .  A
O328       Zr359   2.379       .  S
O328        C329   1.281       .  A
C329       C1535   1.496       .  S
O330       Zr333   2.384       .  S
O330        C332   1.278       .  A
O331       Zr360   2.482       .  S
O331        C332   1.295       .  A
C332        C450   1.473       .  S
Zr333       O334   2.419       .  S
Zr333       O335   2.437       .  S
Zr333       O339   2.361       .  S
Zr333       O340   2.353       .  S
Zr333       O363   2.357       .  S
Zr333       O365   2.339       .  S
O334        H377   0.989       .  S
O335        H376   0.990       .  S
O335        H380   0.989       .  S
Zr336       O337   2.435       .  S
Zr336       O338   2.434       .  S
Zr336       O340   2.391       .  S
Zr336       O339   2.385       .  S
Zr336       O364   2.372       .  S
Zr336       O366   2.386       .  S
O337        H378   0.990       .  S
O337        H381   0.990       .  S
O338        H371   0.990       .  S
O339       Zr359   2.382       .  S
O340       Zr360   2.387       .  S
O340        H367   0.966       .  S
O341       Zr353   2.409       .  S
O341        C343   1.282       .  A
O342       Zr360   2.494   1_655  S
O342        C343   1.297       .  A
C343        C580   1.491       .  S
O344       Zr356   2.539       .  S
O344        C346   1.307       .  A
O345       Zr359   2.364   1_655  S
O345        C346   1.278       .  A
C346       C1465   1.505       .  S
O347       Zr356   2.510       .  S
O347        C349   1.301       .  A
O348       Zr360   2.375   1_655  S
O348        C349   1.280       .  A
C349        C905   1.497       .  S
O350       Zr353   2.415       .  S
O350        C352   1.276       .  A
O351       Zr359   2.466   1_655  S
O351        C352   1.286       .  A
C352        C509   1.468       .  S
Zr353       O354   2.414       .  S
Zr353       O355   2.434       .  S
Zr353       O361   2.364       .  S
Zr353       O362   2.369       .  S
Zr353       O365   2.354   1_655  S
Zr353       O363   2.357   1_655  S
O354        H374   0.990       .  S
O354        H379   0.988       .  S
O355        H375   0.990       .  S
Zr356       O357   2.435       .  S
Zr356       O358   2.435       .  S
Zr356       O362   2.385       .  S
Zr356       O361   2.392       .  S
Zr356       O366   2.385   1_655  S
Zr356       O364   2.364   1_655  S
O357        H373   0.990       .  S
O358        H372   0.990       .  S
O358        H382   0.990       .  S
Zr359       O362   2.386   1_455  S
Zr359       O364   2.410       .  S
Zr359       O365   2.356       .  S
Zr360       O361   2.387   1_455  S
Zr360       O363   2.344       .  S
Zr360       O366   2.418       .  S
O361        H369   0.966       .  S
O364        H368   0.964       .  S
O365        H370   0.965       .  S
O383       Zr395   2.393       .  S
O383        C385   1.280       .  A
O384       Zr421   2.483       .  S
O384        C385   1.294       .  A
O386       Zr398   2.471       .  S
O386        C388   1.293       .  A
O387       Zr422   2.438       .  S
O387        C388   1.291       .  A
C388       C1185   1.485       .  S
O389       Zr398   2.488       .  S
O389        C391   1.296       .  A
O390       Zr421   2.373       .  S
O390        C391   1.278       .  A
C391       C1616   1.484       .  S
O392       Zr395   2.351       .  S
O392        C394   1.270       .  A
O393       Zr422   2.477       .  S
O393        C394   1.287       .  A
Zr395       O396   2.432       .  S
Zr395       O397   2.434       .  S
Zr395       O401   2.343       .  S
Zr395       O402   2.351       .  S
Zr395       O425   2.365       .  S
Zr395       O427   2.338       .  S
O396        H439   0.990       .  S
O397        H438   0.990       .  S
O397        H442   0.990       .  S
Zr398       O399   2.435       .  S
Zr398       O400   2.434       .  S
Zr398       O402   2.384       .  S
Zr398       O401   2.379       .  S
Zr398       O426   2.366       .  S
Zr398       O428   2.381       .  S
O399        H440   0.990       .  S
O399        H443   0.990       .  S
O400        H433   0.990       .  S
O401       Zr421   2.369       .  S
O402       Zr422   2.393       .  S
O402        H429   0.966       .  S
O403       Zr415   2.431       .  S
O403        C405   1.281       .  A
O404       Zr422   2.479   1_545  S
O404        C405   1.289       .  A
C405        C453   1.492       .  S
O406       Zr418   2.508       .  S
O406        C408   1.300       .  A
O407       Zr421   2.375   1_545  S
O407        C408   1.279       .  A
C408       C1549   1.489       .  S
O409       Zr418   2.500       .  S
O409        C411   1.297       .  A
O410       Zr422   2.358   1_545  S
O410        C411   1.275       .  A
C411       C1322   1.490       .  S
O412       Zr415   2.426       .  S
O412        C414   1.279       .  A
O413       Zr421   2.432   1_545  S
O413        C414   1.279       .  A
Zr415       O416   2.427       .  S
Zr415       O417   2.432       .  S
Zr415       O423   2.368       .  S
Zr415       O424   2.368       .  S
Zr415       O427   2.369   1_545  S
Zr415       O425   2.365   1_545  S
O416        H436   0.989       .  S
O416        H441   0.989       .  S
O417        H437   0.990       .  S
Zr418       O419   2.435       .  S
Zr418       O420   2.435       .  S
Zr418       O424   2.387       .  S
Zr418       O423   2.386       .  S
Zr418       O428   2.381   1_545  S
Zr418       O426   2.374   1_545  S
O419        H435   0.990       .  S
O420        H434   0.990       .  S
O420        H444   0.990       .  S
Zr421       O424   2.394   1_565  S
Zr421       O426   2.408       .  S
Zr421       O427   2.360       .  S
Zr422       O423   2.401   1_565  S
Zr422       O425   2.371       .  S
Zr422       O428   2.410       .  S
O423        H431   0.965       .  S
O426        H430   0.965       .  S
O427        H432   0.966       .  S
O445       Zr457   2.529       .  S
O445        C447   1.304       .  A
O446       Zr483   2.366       .  S
O446        C447   1.278       .  A
C447       C1339   1.513       .  S
O448       Zr460   2.432       .  S
O448        C450   1.278       .  A
O449       Zr484   2.447   1_554  S
O449        C450   1.277       .  A
O451       Zr460   2.440       .  S
O451        C453   1.287       .  A
O452       Zr483   2.485       .  S
O452        C453   1.296       .  A
O454       Zr457   2.511       .  S
O454        C456   1.301       .  A
O455       Zr484   2.354   1_554  S
O455        C456   1.273       .  A
C456        C989   1.493       .  S
Zr457       O458   2.435       .  S
Zr457       O459   2.436       .  S
Zr457       O463   2.387       .  S
Zr457       O464   2.387       .  S
Zr457       O487   2.389   1_554  S
Zr457       O489   2.371   1_554  S
O458        H501   0.990       .  S
O459        H500   0.990       .  S
O459        H504   0.990       .  S
Zr460       O461   2.430       .  S
Zr460       O462   2.414       .  S
Zr460       O464   2.360       .  S
Zr460       O463   2.360       .  S
Zr460       O488   2.352       .  S
Zr460       O490   2.377       .  S
O461        H502   0.989       .  S
O461        H505   0.989       .  S
O462        H495   0.990       .  S
O463       Zr483   2.391       .  S
O464       Zr484   2.406   1_554  S
O464        H491   0.965       .  S
O465       Zr477   2.515       .  S
O465        C467   1.300       .  A
O466       Zr484   2.384       .  S
O466        C467   1.280       .  A
C467       C1059   1.502       .  S
O468       Zr480   2.418       .  S
O468        C470   1.274       .  A
O469       Zr483   2.460   1_556  S
O469        C470   1.284       .  A
O471       Zr480   2.416       .  S
O471        C473   1.282       .  A
O472       Zr484   2.445       .  S
O472        C473   1.288       .  A
O474       Zr477   2.474       .  S
O474        C476   1.292       .  A
O475       Zr483   2.410   1_556  S
O475        C476   1.287       .  A
C476       C1269   1.486       .  S
Zr477       O478   2.434       .  S
Zr477       O479   2.434       .  S
Zr477       O485   2.381       .  S
Zr477       O486   2.397       .  S
Zr477       O489   2.394       .  S
Zr477       O487   2.364       .  S
O478        H498   0.990       .  S
O478        H503   0.990       .  S
O479        H499   0.990       .  S
Zr480       O481   2.419       .  S
Zr480       O482   2.440       .  S
Zr480       O486   2.370       .  S
Zr480       O485   2.379       .  S
Zr480       O490   2.358   1_556  S
Zr480       O488   2.364   1_556  S
O481        H497   0.990       .  S
O482        H496   0.990       .  S
O482        H506   0.990       .  S
Zr483       O486   2.383   1_554  S
Zr483       O488   2.368       .  S
Zr483       O489   2.416   1_554  S
Zr484       O485   2.373       .  S
Zr484       O487   2.399       .  S
Zr484       O490   2.370   1_556  S
O485        H493   0.966       .  S
O488        H492   0.963       .  S
O489        H494   0.965       .  S
O507       Zr519   2.390       .  S
O507        C509   1.279       .  A
O508       Zr545   2.467   1_545  S
O508        C509   1.291       .  A
O510       Zr522   2.499       .  S
O510        C512   1.299       .  A
O511       Zr546   2.370   1_545  S
O511        C512   1.278       .  A
C512       C1297   1.489       .  S
O513       Zr522   2.493       .  S
O513        C515   1.297       .  A
O514       Zr545   2.396   1_545  S
O514        C515   1.282       .  A
C515       C1476   1.491       .  S
O516       Zr519   2.375       .  S
O516        C518   1.277       .  A
O517       Zr546   2.458   1_545  S
O517        C518   1.289       .  A
C518        C571   1.459       .  S
Zr519       O520   2.430       .  S
Zr519       O521   2.435       .  S
Zr519       O525   2.344       .  S
Zr519       O526   2.352       .  S
Zr519       O549   2.362   1_545  S
Zr519       O551   2.346   1_545  S
O520        H563   0.990       .  S
O521        H562   0.990       .  S
O521        H566   0.990       .  S
Zr522       O523   2.434       .  S
Zr522       O524   2.434       .  S
Zr522       O526   2.382       .  S
Zr522       O525   2.383       .  S
Zr522       O550   2.380   1_545  S
Zr522       O552   2.373   1_545  S
O523        H564   0.990       .  S
O523        H567   0.990       .  S
O524        H557   0.990       .  S
O525       Zr545   2.373   1_545  S
O526       Zr546   2.380   1_545  S
O526        H553   0.966       .  S
O527       Zr539   2.437       .  S
O527        C529   1.281       .  A
O528       Zr546   2.449       .  S
O528        C529   1.281       .  A
C529        C763   1.479       .  S
O530       Zr542   2.507       .  S
O530        C532   1.299       .  A
O531       Zr545   2.366       .  S
O531        C532   1.278       .  A
C532       C1406   1.501       .  S
O533       Zr542   2.500       .  S
O533        C535   1.298       .  A
O534       Zr546   2.359       .  S
O534        C535   1.276       .  A
C535       C1157   1.484       .  S
O536       Zr539   2.417       .  S
O536        C538   1.278       .  A
O537       Zr545   2.466       .  S
O537        C538   1.288       .  A
Zr539       O540   2.427       .  S
Zr539       O541   2.433       .  S
Zr539       O547   2.367       .  S
Zr539       O548   2.371       .  S
Zr539       O551   2.373       .  S
Zr539       O549   2.360       .  S
O540        H560   0.989       .  S
O540        H565   0.988       .  S
O541        H561   0.990       .  S
Zr542       O543   2.435       .  S
Zr542       O544   2.434       .  S
Zr542       O548   2.388       .  S
Zr542       O547   2.390       .  S
Zr542       O552   2.376       .  S
Zr542       O550   2.375       .  S
O543        H559   0.990       .  S
O544        H558   0.990       .  S
O544        H568   0.990       .  S
Zr545       O548   2.385       .  S
Zr545       O550   2.408       .  S
Zr545       O551   2.358       .  S
Zr546       O547   2.393       .  S
Zr546       O549   2.355       .  S
Zr546       O552   2.398       .  S
O547        H555   0.965       .  S
O550        H554   0.966       .  S
O551        H556   0.965       .  S
O569       Zr581   2.425       .  S
O569        C571   1.278       .  A
O570       Zr607   2.442   1_554  S
O570        C571   1.282       .  A
O572       Zr584   2.461       .  S
O572        C574   1.290       .  A
O573       Zr608   2.450   1_554  S
O573        C574   1.294       .  A
C574        C919   1.489       .  S
O575       Zr584   2.495       .  S
O575        C577   1.297       .  A
O576       Zr607   2.364   1_554  S
O576        C577   1.275       .  A
C577       C1308   1.491       .  S
O578       Zr581   2.444       .  S
O578        C580   1.284       .  A
O579       Zr608   2.470   1_554  S
O579        C580   1.288       .  A
Zr581       O582   2.422       .  S
Zr581       O583   2.424       .  S
Zr581       O587   2.367       .  S
Zr581       O588   2.370       .  S
Zr581       O611   2.356   1_554  S
Zr581       O613   2.373   1_554  S
O582        H625   0.990       .  S
O583        H624   0.987       .  S
O583        H628   0.990       .  S
Zr584       O585   2.435       .  S
Zr584       O586   2.433       .  S
Zr584       O588   2.392       .  S
Zr584       O587   2.373       .  S
Zr584       O612   2.372       .  S
Zr584       O614   2.384       .  S
O585        H626   0.990       .  S
O585        H629   0.990       .  S
O586        H619   0.990       .  S
O587       Zr607   2.377   1_554  S
O588       Zr608   2.396   1_554  S
O588        H615   0.966       .  S
O589       Zr601   2.402       .  S
O589        C591   1.282       .  A
O590       Zr608   2.498       .  S
O590        C591   1.299       .  A
O592       Zr604   2.517       .  S
O592        C594   1.301       .  A
O593       Zr607   2.352       .  S
O593        C594   1.275       .  A
C594       C1238   1.493       .  S
O595       Zr604   2.511       .  S
O595        C597   1.301       .  A
O596       Zr608   2.373       .  S
O596        C597   1.280       .  A
C597        C860   1.500       .  S
O598       Zr601   2.445       .  S
O598        C600   1.290       .  A
O599       Zr607   2.460       .  S
O599        C600   1.289       .  A
C600        C698   1.486       .  S
Zr601       O602   2.409       .  S
Zr601       O603   2.426       .  S
Zr601       O609   2.359       .  S
Zr601       O610   2.348       .  S
Zr601       O613   2.328       .  S
Zr601       O611   2.365       .  S
O602        H622   0.989       .  S
O602        H627   0.985       .  S
O603        H623   0.990       .  S
Zr604       O605   2.435       .  S
Zr604       O606   2.436       .  S
Zr604       O610   2.385       .  S
Zr604       O609   2.384       .  S
Zr604       O614   2.382   1_556  S
Zr604       O612   2.376   1_556  S
O605        H621   0.990       .  S
O606        H620   0.990       .  S
O606        H630   0.990       .  S
Zr607       O610   2.373       .  S
Zr607       O612   2.403   1_556  S
Zr607       O613   2.358       .  S
Zr608       O609   2.394       .  S
Zr608       O611   2.364       .  S
Zr608       O614   2.408   1_556  S
O609        H617   0.966       .  S
O612        H616   0.965       .  S
O613        H618   0.965       .  S
O631       Zr643   2.426       .  S
O631        C633   1.278       .  A
O632       Zr669   2.459       .  S
O632        C633   1.285       .  A
O634       Zr646   2.486       .  S
O634        C636   1.294       .  A
O635       Zr670   2.399       .  S
O635        C636   1.283       .  A
C636       C1017   1.492       .  S
O637       Zr646   2.447       .  S
O637        C639   1.287       .  A
O638       Zr669   2.431       .  S
O638        C639   1.287       .  A
C639       C1574   1.473       .  S
O640       Zr643   2.430       .  S
O640        C642   1.286       .  A
O641       Zr670   2.433       .  S
O641        C642   1.286       .  A
Zr643       O644   2.419       .  S
Zr643       O645   2.438       .  S
Zr643       O649   2.364       .  S
Zr643       O650   2.377       .  S
Zr643       O673   2.354       .  S
Zr643       O675   2.371       .  S
O644        H687   0.989       .  S
O645        H686   0.990       .  S
O645        H690   0.990       .  S
Zr646       O647   2.435       .  S
Zr646       O648   2.434       .  S
Zr646       O650   2.371       .  S
Zr646       O649   2.391       .  S
Zr646       O674   2.387       .  S
Zr646       O676   2.362       .  S
O647        H688   0.990       .  S
O647        H691   0.990       .  S
O648        H681   0.990       .  S
O649       Zr669   2.384       .  S
O650       Zr670   2.375       .  S
O650        H677   0.966       .  S
O651       Zr663   2.426       .  S
O651        C653   1.277       .  A
O652       Zr670   2.452   1_655  S
O652        C653   1.280       .  A
C653        C783   1.474       .  S
O654       Zr666   2.535       .  S
O654        C656   1.305       .  A
O655       Zr669   2.363   1_655  S
O655        C656   1.273       .  A
C656       C1381   1.507       .  S
O657       Zr666   2.527       .  S
O657        C659   1.305       .  A
O658       Zr670   2.358   1_655  S
O658        C659   1.276       .  A
C659        C821   1.507       .  S
O660       Zr663   2.423       .  S
O660        C662   1.285       .  A
O661       Zr669   2.491   1_655  S
O661        C662   1.296       .  A
C662        C718   1.490       .  S
Zr663       O664   2.434       .  S
Zr663       O665   2.420       .  S
Zr663       O671   2.354       .  S
Zr663       O672   2.359       .  S
Zr663       O675   2.361   1_655  S
Zr663       O673   2.372   1_655  S
O664        H684   0.990       .  S
O664        H689   0.989       .  S
O665        H685   0.990       .  S
Zr666       O667   2.435       .  S
Zr666       O668   2.434       .  S
Zr666       O672   2.386       .  S
Zr666       O671   2.388       .  S
Zr666       O676   2.386   1_655  S
Zr666       O674   2.377   1_655  S
O667        H683   0.990       .  S
O668        H682   0.990   1_655  S
O668        H692   0.990       .  S
Zr669       O672   2.391   1_455  S
Zr669       O674   2.417       .  S
Zr669       O675   2.373       .  S
Zr670       O671   2.401   1_455  S
Zr670       O673   2.369       .  S
Zr670       O676   2.394       .  S
O671        H679   0.965       .  S
O674        H678   0.965       .  S
O675        H680   0.965       .  S
O693       Zr705   2.470       .  S
O693        C695   1.293       .  A
O694       Zr731   2.398   1_545  S
O694        C695   1.286       .  A
C695       C1448   1.478       .  S
O696       Zr708   2.397       .  S
O696        C698   1.270       .  A
O697       Zr732   2.496   1_545  S
O697        C698   1.289       .  A
O699       Zr708   2.391       .  S
O699        C701   1.280       .  A
O700       Zr731   2.457   1_545  S
O700        C701   1.285       .  A
O702       Zr705   2.498       .  S
O702        C704   1.298       .  A
O703       Zr732   2.342   1_545  S
O703        C704   1.275       .  A
C704       C1224   1.480       .  S
Zr705       O706   2.435       .  S
Zr705       O707   2.435       .  S
Zr705       O711   2.393       .  S
Zr705       O712   2.369       .  S
Zr705       O735   2.364   1_545  S
Zr705       O737   2.385   1_545  S
O706        H749   0.990       .  S
O707        H748   0.990       .  S
O707        H752   0.990   1_545  S
Zr708       O709   2.433       .  S
Zr708       O710   2.411       .  S
Zr708       O712   2.351       .  S
Zr708       O711   2.344       .  S
Zr708       O736   2.363   1_545  S
Zr708       O738   2.364   1_545  S
O709        H750   0.989       .  S
O709        H753   0.989       .  S
O710        H743   0.990       .  S
O711       Zr731   2.394   1_545  S
O712       Zr732   2.389   1_545  S
O712        H739   0.965       .  S
O713       Zr725   2.475       .  S
O713        C715   1.293       .  A
O714       Zr732   2.421       .  S
O714        C715   1.288       .  A
C715       C1101   1.482       .  S
O716       Zr728   2.424       .  S
O716        C718   1.279       .  A
O717       Zr731   2.490       .  S
O717        C718   1.291       .  A
O719       Zr728   2.460       .  S
O719        C721   1.286       .  A
O720       Zr732   2.421       .  S
O720        C721   1.277       .  A
C721        C780   1.473       .  S
O722       Zr725   2.517       .  S
O722        C724   1.302       .  A
O723       Zr731   2.368       .  S
O723        C724   1.278       .  A
C724       C1395   1.504       .  S
Zr725       O726   2.433       .  S
Zr725       O727   2.434       .  S
Zr725       O733   2.400       .  S
Zr725       O734   2.376       .  S
Zr725       O737   2.361       .  S
Zr725       O735   2.382       .  S
O726        H746   0.990       .  S
O726        H751   0.990       .  S
O727        H747   0.990       .  S
Zr728       O729   2.419       .  S
Zr728       O730   2.437       .  S
Zr728       O734   2.374       .  S
Zr728       O733   2.371       .  S
Zr728       O738   2.347       .  S
Zr728       O736   2.383       .  S
O729        H745   0.990       .  S
O730        H744   0.990       .  S
O730        H754   0.988       .  S
Zr731       O734   2.379       .  S
Zr731       O736   2.370       .  S
Zr731       O737   2.410       .  S
Zr732       O733   2.402       .  S
Zr732       O735   2.398       .  S
Zr732       O738   2.368       .  S
O733        H741   0.966       .  S
O736        H740   0.966       .  S
O737        H742   0.965       .  S
O755       Zr767   2.476       .  S
O755        C757   1.295       .  A
O756       Zr793   2.426       .  S
O756        C757   1.288       .  A
C757       C1171   1.480       .  S
O758       Zr770   2.382       .  S
O758        C760   1.277       .  A
O759       Zr794   2.476   1_554  S
O759        C760   1.294       .  A
O761       Zr770   2.395       .  S
O761        C763   1.280       .  A
O762       Zr793   2.485       .  S
O762        C763   1.296       .  A
O764       Zr767   2.507       .  S
O764        C766   1.300       .  A
O765       Zr794   2.399   1_554  S
O765        C766   1.282       .  A
C766        C891   1.512       .  S
Zr767       O768   2.434       .  S
Zr767       O769   2.435       .  S
Zr767       O773   2.393       .  S
Zr767       O774   2.373       .  S
Zr767       O797   2.370   1_554  S
Zr767       O799   2.378   1_554  S
O768        H811   0.990       .  S
O769        H810   0.990       .  S
O769        H814   0.990       .  S
Zr770       O771   2.425       .  S
Zr770       O772   2.434       .  S
Zr770       O774   2.362       .  S
Zr770       O773   2.353       .  S
Zr770       O798   2.343       .  S
Zr770       O800   2.360   1_554  S
O771        H812   0.990       .  S
O771        H815   0.989       .  S
O772        H805   0.990       .  S
O773       Zr793   2.376       .  S
O774       Zr794   2.377   1_554  S
O774        H801   0.966       .  S
O775       Zr787   2.509       .  S
O775        C777   1.300       .  A
O776       Zr794   2.388       .  S
O776        C777   1.283       .  A
C777        C832   1.490       .  S
O778       Zr790   2.375       .  S
O778        C780   1.276       .  A
O779       Zr793   2.496   1_556  S
O779        C780   1.299       .  A
O781       Zr790   2.401       .  S
O781        C783   1.280       .  A
O782       Zr794   2.466       .  S
O782        C783   1.291       .  A
O784       Zr787   2.523       .  S
O784        C786   1.304       .  A
O785       Zr793   2.363   1_556  S
O785        C786   1.278       .  A
C786       C1112   1.491       .  S
Zr787       O788   2.435       .  S
Zr787       O789   2.434       .  S
Zr787       O795   2.390       .  S
Zr787       O796   2.384       .  S
Zr787       O799   2.371       .  S
Zr787       O797   2.384       .  S
O788        H808   0.990       .  S
O788        H813   0.990       .  S
O789        H809   0.990       .  S
Zr790       O791   2.421       .  S
Zr790       O792   2.436       .  S
Zr790       O796   2.365       .  S
Zr790       O795   2.351       .  S
Zr790       O800   2.348       .  S
Zr790       O798   2.357   1_556  S
O791        H807   0.990       .  S
O792        H806   0.990       .  S
O792        H816   0.990       .  S
Zr793       O796   2.384   1_554  S
Zr793       O798   2.350       .  S
Zr793       O799   2.417   1_554  S
Zr794       O795   2.384       .  S
Zr794       O797   2.404       .  S
Zr794       O800   2.351       .  S
O795        H803   0.966       .  S
O798        H802   0.966       .  S
O799        H804   0.966       .  S
C817        C818   1.410       .  A
C817        C822   1.419       .  A
C817        H824   1.083       .  S
C818        C819   1.398       .  A
C819        C820   1.388       .  A
C819        N826   1.434       .  S
C820        C821   1.420       .  A
C820        H825   1.083       .  S
C821        C822   1.414       .  A
C822        N823   1.436       .  S
N823        H827   1.046       .  S
N823        H828   1.045       .  S
N826        H829   1.045       .  S
N826        H830   1.035       .  S
C831        C832   1.395       .  A
C831        C836   1.390       .  A
C831        H838   1.084       .  S
C832        C833   1.410       .  A
C833        C834   1.426       .  A
C833        N840   1.435       .  S
C834        C835   1.420       .  A
C834        H839   1.083       .  S
C835        C836   1.416       .  A
C836        N837   1.420       .  S
N837        H841   1.044   1_556  S
N837        H842   1.045       .  S
N840        H843   1.045       .  S
N840        H844   1.046       .  S
C845        C846   1.389       .  A
C845        C850   1.380       .  A
C845        H852   1.075       .  S
C846        C847   1.414       .  A
C847        C848   1.418       .  A
C847        N854   1.430       .  S
C848        C849   1.406       .  A
C848        H853   1.083       .  S
C849        C850   1.425       .  A
C850        N851   1.434       .  S
N851        H855   1.043       .  S
N851        H856   1.045       .  S
N854        H857   1.045       .  S
N854        H858   1.046       .  S
C859        C860   1.408       .  A
C859        C864   1.383       .  A
C859        H866   1.085       .  S
C860        C861   1.420       .  A
C861        C862   1.418       .  A
C861        N868   1.437       .  S
C862        C863   1.414       .  A
C862        H867   1.084       .  S
C863        C864   1.416       .  A
C864        N865   1.432       .  S
N865        H869   1.043   1_556  S
N865        H870   1.031       .  S
N868        H871   1.040       .  S
N868        H872   1.046       .  S
C873        C874   1.410       .  A
C873        C878   1.415       .  A
C873        H880   1.084       .  S
C874        C875   1.417       .  A
C875        C876   1.391       .  A
C875        N882   1.437       .  S
C876        C877   1.409       .  A
C876        H881   1.084   1_655  S
C877        C878   1.411       .  A
C878        N879   1.437       .  S
N879        H883   1.046       .  S
N879        H884   1.046       .  S
N882        H885   1.040       .  S
N882        H886   1.044   1_655  S
C887        C888   1.395       .  A
C887        C892   1.400       .  A
C887        H894   1.077       .  S
C888        C889   1.421       .  A
C889        C890   1.419       .  A
C889        N896   1.437       .  S
C890        C891   1.412       .  A
C890        H895   1.083       .  S
C891        C892   1.424       .  A
C892        N893   1.440       .  S
N893        H897   1.046       .  S
N893        H898   1.046       .  S
N896        H899   1.044       .  S
N896        H900   1.045       .  S
C901        C902   1.410       .  A
C901        C906   1.410       .  A
C901        H908   1.083       .  S
C902        C903   1.406       .  A
C903        C904   1.400       .  A
C903        N910   1.433       .  S
C904        C905   1.412       .  A
C904        H909   1.084       .  S
C905        C906   1.416       .  A
C906        N907   1.431       .  S
N907        H911   1.045       .  S
N907        H912   1.045       .  S
N910        H913   1.045       .  S
N910        H914   1.045       .  S
C915        C916   1.409       .  A
C915        C920   1.396       .  A
C915        H922   1.063       .  S
C916        C917   1.425       .  A
C917        C918   1.421       .  A
C917        N924   1.436       .  S
C918        C919   1.404       .  A
C918        H923   1.083       .  S
C919        C920   1.403       .  A
C920        N921   1.436       .  S
N921        H925   1.046       .  S
N921        H926   1.044       .  S
N924        H927   1.045       .  S
N924        H928   1.046       .  S
C929        C930   1.413       .  A
C929        C934   1.429   1_556  A
C929        H936   1.083       .  S
C930        C931   1.421       .  A
C931        C932   1.395   1_556  A
C931        N938   1.429       .  S
C932        C933   1.394       .  A
C932        H937   1.082       .  S
C933        C934   1.418       .  A
C934        N935   1.434       .  S
N935        H939   1.045       .  S
N935        H940   1.044       .  S
N938        H941   1.045       .  S
N938        H942   1.046       .  S
C943        C944   1.394       .  A
C943        C948   1.390       .  A
C943        H950   1.083       .  S
C944        C945   1.428       .  A
C945        C946   1.415       .  A
C945        N952   1.438       .  S
C946        C947   1.402       .  A
C946        H951   1.083       .  S
C947        C948   1.420       .  A
C948        N949   1.435       .  S
N949        H953   1.046       .  S
N949        H954   1.046       .  S
N952        H955   1.045       .  S
N952        H956   1.042       .  S
C957        C958   1.406       .  A
C957        C962   1.426       .  A
C957        H964   1.083       .  S
C958        C959   1.405       .  A
C959        C960   1.389       .  A
C959        N966   1.424       .  S
C960        C961   1.397       .  A
C960        H965   1.067       .  S
C961        C962   1.424       .  A
C962        N963   1.430       .  S
N963        H967   1.045       .  S
N963        H968   1.045       .  S
N966        H969   1.044   1_554  S
N966        H970   1.046   1_554  S
C971        C972   1.391       .  A
C971        C976   1.387       .  A
C971        H978   1.064       .  S
C972        C973   1.426       .  A
C973        C974   1.423       .  A
C973        N980   1.437       .  S
C974        C975   1.409       .  A
C974        H979   1.083       .  S
C975        C976   1.413       .  A
C976        N977   1.430       .  S
N977        H981   1.046       .  S
N977        H982   1.044       .  S
N980        H983   1.044       .  S
N980        H984   1.045       .  S
C985        C986   1.388       .  A
C985        C990   1.389       .  A
C985        H992   1.084       .  S
C986        C987   1.411       .  A
C987        C988   1.413       .  A
C987        N994   1.432       .  S
C988        C989   1.406       .  A
C988        H993   1.083       .  S
C989        C990   1.427       .  A
C990        N991   1.435       .  S
N991        H995   1.046       .  S
N991        H996   1.046       .  S
N994        H997   1.045       .  S
N994        H998   1.045       .  S
C999       C1000   1.415       .  A
C999       C1004   1.434   1_455  A
C999       H1006   1.079       .  S
C1000      C1001   1.422       .  A
C1001      C1002   1.403   1_455  A
C1001      N1008   1.428       .  S
C1002      C1003   1.397       .  A
C1002      H1007   1.083       .  S
C1003      C1004   1.420       .  A
C1004      N1005   1.435       .  S
N1005      H1009   1.045   1_655  S
N1005      H1010   1.045       .  S
N1008      H1011   1.045       .  S
N1008      H1012   1.046       .  S
C1013      C1014   1.417       .  A
C1013      C1018   1.423       .  A
C1013      H1020   1.083       .  S
C1014      C1015   1.408       .  A
C1015      C1016   1.393       .  A
C1015      N1022   1.423       .  S
C1016      C1017   1.397       .  A
C1016      H1021   1.080       .  S
C1017      C1018   1.411       .  A
C1018      N1019   1.436       .  S
N1019      H1023   1.046       .  S
N1019      H1024   1.046       .  S
N1022      H1025   1.041       .  S
N1022      H1026   1.043       .  S
C1027      C1028   1.406       .  A
C1027      C1032   1.389       .  A
C1027      H1034   1.084       .  S
C1028      C1029   1.415       .  A
C1029      C1030   1.420       .  A
C1029      N1036   1.436       .  S
C1030      C1031   1.411       .  A
C1030      H1035   1.083       .  S
C1031      C1032   1.413       .  A
C1032      N1033   1.433       .  S
N1033      H1037   1.046       .  S
N1033      H1038   1.036       .  S
N1036      H1039   1.046       .  S
N1036      H1040   1.046       .  S
C1041      C1042   1.408       .  A
C1041      C1046   1.420       .  A
C1041      H1048   1.083       .  S
C1042      C1043   1.423       .  A
C1043      C1044   1.384       .  A
C1043      N1050   1.436       .  S
C1044      C1045   1.389       .  A
C1044      H1049   1.079       .  S
C1045      C1046   1.414       .  A
C1046      N1047   1.436       .  S
N1047      H1051   1.045       .  S
N1047      H1052   1.046       .  S
N1050      H1053   1.046       .  S
N1050      H1054   1.046       .  S
C1055      C1056   1.415       .  A
C1055      C1060   1.423       .  A
C1055      H1062   1.083       .  S
C1056      C1057   1.412       .  A
C1057      C1058   1.398       .  A
C1057      N1064   1.431       .  S
C1058      C1059   1.407       .  A
C1058      H1063   1.083       .  S
C1059      C1060   1.412       .  A
C1060      N1061   1.436       .  S
N1061      H1065   1.046       .  S
N1061      H1066   1.046       .  S
N1064      H1067   1.045       .  S
N1064      H1068   1.045       .  S
C1069      C1070   1.397       .  A
C1069      C1074   1.401   1_556  A
C1069      H1076   1.079       .  S
C1070      C1071   1.425       .  A
C1071      C1072   1.431   1_556  A
C1071      N1078   1.436       .  S
C1072      C1073   1.416       .  A
C1072      H1077   1.082       .  S
C1073      C1074   1.417       .  A
C1074      N1075   1.431       .  S
N1075      H1079   1.046       .  S
N1075      H1080   1.042       .  S
N1078      H1081   1.044       .  S
N1078      H1082   1.046       .  S
C1083      C1084   1.419   1_455  A
C1083      C1088   1.436       .  A
C1083      H1090   1.083   1_455  S
C1084      C1085   1.429   1_655  A
C1085      C1086   1.398       .  A
C1085      N1092   1.429       .  S
C1086      C1087   1.396       .  A
C1086      H1091   1.084       .  S
C1087      C1088   1.428       .  A
C1088      N1089   1.435       .  S
N1089      H1093   1.045       .  S
N1089      H1094   1.044       .  S
N1092      H1095   1.028   1_455  S
N1092      H1096   1.045       .  S
C1097      C1098   1.402       .  A
C1097      C1102   1.398       .  A
C1097      H1104   1.071       .  S
C1098      C1099   1.434       .  A
C1099      C1100   1.416       .  A
C1099      N1106   1.437       .  S
C1100      C1101   1.400       .  A
C1100      H1105   1.083       .  S
C1101      C1102   1.398       .  A
C1102      N1103   1.434       .  S
N1103      H1107   1.045       .  S
N1103      H1108   1.046       .  S
N1106      H1109   1.044       .  S
N1106      H1110   1.044       .  S
C1111      C1112   1.409       .  A
C1111      C1116   1.396       .  A
C1111      H1118   1.084       .  S
C1112      C1113   1.410       .  A
C1113      C1114   1.417       .  A
C1113      N1120   1.436       .  S
C1114      C1115   1.413       .  A
C1114      H1119   1.083       .  S
C1115      C1116   1.415       .  A
C1116      N1117   1.441       .  S
N1117      H1121   1.046       .  S
N1117      H1122   1.042       .  S
N1120      H1123   1.045       .  S
N1120      H1124   1.046       .  S
C1125      C1126   1.408       .  A
C1125      C1130   1.414       .  A
C1125      H1132   1.083       .  S
C1126      C1127   1.429       .  A
C1127      C1128   1.379       .  A
C1127      N1134   1.436       .  S
C1128      C1129   1.389       .  A
C1128      H1133   1.079       .  S
C1129      C1130   1.410       .  A
C1130      N1131   1.431       .  S
N1131      H1135   1.045       .  S
N1131      H1136   1.045       .  S
N1134      H1137   1.046       .  S
N1134      H1138   1.044       .  S
C1139      C1140   1.411       .  A
C1139      C1144   1.410       .  A
C1139      H1146   1.084       .  S
C1140      C1141   1.416       .  A
C1141      C1142   1.395       .  A
C1141      N1148   1.440       .  S
C1142      C1143   1.414       .  A
C1142      H1147   1.084       .  S
C1143      C1144   1.416       .  A
C1144      N1145   1.438       .  S
N1145      H1149   1.046       .  S
N1145      H1150   1.041       .  S
N1148      H1151   1.042       .  S
N1148      H1152   1.045       .  S
C1153      C1154   1.396       .  A
C1153      C1158   1.393       .  A
C1153      H1160   1.069       .  S
C1154      C1155   1.427       .  A
C1155      C1156   1.412       .  A
C1155      N1162   1.437       .  S
C1156      C1157   1.403       .  A
C1156      H1161   1.083       .  S
C1157      C1158   1.417       .  A
C1158      N1159   1.440       .  S
N1159      H1163   1.046       .  S
N1159      H1164   1.046       .  S
N1162      H1165   1.042       .  S
N1162      H1166   1.045       .  S
C1167      C1168   1.417       .  A
C1167      C1172   1.409       .  A
C1167      H1174   1.076       .  S
C1168      C1169   1.425       .  A
C1169      C1170   1.405       .  A
C1169      N1176   1.430       .  S
C1170      C1171   1.399       .  A
C1170      H1175   1.084       .  S
C1171      C1172   1.411       .  A
C1172      N1173   1.438       .  S
N1173      H1177   1.045       .  S
N1173      H1178   1.044       .  S
N1176      H1179   1.042       .  S
N1176      H1180   1.043       .  S
C1181      C1182   1.409       .  A
C1181      C1186   1.400       .  A
C1181      H1188   1.059       .  S
C1182      C1183   1.434       .  A
C1183      C1184   1.417       .  A
C1183      N1190   1.435       .  S
C1184      C1185   1.401       .  A
C1184      H1189   1.083       .  S
C1185      C1186   1.396       .  A
C1186      N1187   1.435       .  S
N1187      H1191   1.046       .  S
N1187      H1192   1.046       .  S
N1190      H1193   1.043       .  S
N1190      H1194   1.043       .  S
C1195      C1196   1.399       .  A
C1195      C1200   1.404       .  A
C1195      H1202   1.084       .  S
C1196      C1197   1.420       .  A
C1197      C1198   1.416       .  A
C1197      N1204   1.434       .  S
C1198      C1199   1.405       .  A
C1198      H1203   1.083       .  S
C1199      C1200   1.422       .  A
C1200      N1201   1.439       .  S
N1201      H1205   1.046       .  S
N1201      H1206   1.046       .  S
N1204      H1207   1.045       .  S
N1204      H1208   1.045       .  S
C1209      C1210   1.418       .  A
C1209      C1214   1.420   1_554  A
C1209      H1216   1.072       .  S
C1210      C1211   1.424       .  A
C1211      C1212   1.399   1_554  A
C1211      N1218   1.423       .  S
C1212      C1213   1.402       .  A
C1212      H1217   1.081       .  S
C1213      C1214   1.421       .  A
C1214      N1215   1.436       .  S
N1215      H1219   1.045       .  S
N1215      H1220   1.044       .  S
N1218      H1221   1.037       .  S
N1218      H1222   1.043       .  S
C1223      C1224   1.411       .  A
C1223      C1228   1.382       .  A
C1223      H1230   1.084   1_545  S
C1224      C1225   1.406       .  A
C1225      C1226   1.409       .  A
C1225      N1232   1.436       .  S
C1226      C1227   1.409       .  A
C1226      H1231   1.084       .  S
C1227      C1228   1.412       .  A
C1228      N1229   1.440   1_545  S
N1229      H1233   1.046       .  S
N1229      H1234   1.037   1_565  S
N1232      H1235   1.046       .  S
N1232      H1236   1.046       .  S
C1237      C1238   1.405       .  A
C1237      C1242   1.415       .  A
C1237      H1244   1.083       .  S
C1238      C1239   1.419       .  A
C1239      C1240   1.392       .  A
C1239      N1246   1.441       .  S
C1240      C1241   1.397       .  A
C1240      H1245   1.074       .  S
C1241      C1242   1.424       .  A
C1242      N1243   1.432       .  S
N1243      H1247   1.042       .  S
N1243      H1248   1.046       .  S
N1246      H1249   1.046       .  S
N1246      H1250   1.046       .  S
C1251      C1252   1.395       .  A
C1251      C1256   1.393       .  A
C1251      H1258   1.083       .  S
C1252      C1253   1.427       .  A
C1253      C1254   1.411       .  A
C1253      N1260   1.439       .  S
C1254      C1255   1.401       .  A
C1254      H1259   1.084       .  S
C1255      C1256   1.419       .  A
C1256      N1257   1.440       .  S
N1257      H1261   1.046       .  S
N1257      H1262   1.046       .  S
N1260      H1263   1.042       .  S
N1260      H1264   1.046       .  S
C1265      C1266   1.389       .  A
C1265      C1270   1.386       .  A
C1265      H1272   1.081       .  S
C1266      C1267   1.422       .  A
C1267      C1268   1.418       .  A
C1267      N1274   1.436       .  S
C1268      C1269   1.402       .  A
C1268      H1273   1.083       .  S
C1269      C1270   1.403       .  A
C1270      N1271   1.418       .  S
N1271      H1275   1.046   1_556  S
N1271      H1276   1.041   1_556  S
N1274      H1277   1.045       .  S
N1274      H1278   1.045       .  S
C1279      C1280   1.405       .  A
C1279      C1284   1.404       .  A
C1279      H1286   1.083       .  S
C1280      C1281   1.426       .  A
C1281      C1282   1.426       .  A
C1281      N1288   1.437       .  S
C1282      C1283   1.413   1_565  A
C1282      H1287   1.083   1_565  S
C1283      C1284   1.413   1_545  A
C1284      N1285   1.431   1_565  S
N1285      H1289   1.045   1_545  S
N1285      H1290   1.046   1_545  S
N1288      H1291   1.044       .  S
N1288      H1292   1.044       .  S
C1293      C1294   1.390       .  A
C1293      C1298   1.387       .  A
C1293      H1300   1.082       .  S
C1294      C1295   1.421       .  A
C1295      C1296   1.412       .  A
C1295      N1302   1.437       .  S
C1296      C1297   1.404       .  A
C1296      H1301   1.083       .  S
C1297      C1298   1.418       .  A
C1298      N1299   1.429   1_545  S
N1299      H1303   1.046       .  S
N1299      H1304   1.043       .  S
N1302      H1305   1.044       .  S
N1302      H1306   1.045       .  S
C1307      C1308   1.407       .  A
C1307      C1312   1.411       .  A
C1307      H1314   1.083       .  S
C1308      C1309   1.421       .  A
C1309      C1310   1.390       .  A
C1309      N1316   1.435       .  S
C1310      C1311   1.395       .  A
C1310      H1315   1.083       .  S
C1311      C1312   1.419       .  A
C1312      N1313   1.437       .  S
N1313      H1317   1.046       .  S
N1313      H1318   1.043       .  S
N1316      H1319   1.046       .  S
N1316      H1320   1.046       .  S
C1321      C1322   1.407       .  A
C1321      C1326   1.381       .  A
C1321      H1328   1.084       .  S
C1322      C1323   1.409       .  A
C1323      C1324   1.420       .  A
C1323      N1330   1.436       .  S
C1324      C1325   1.415       .  A
C1324      H1329   1.083       .  S
C1325      C1326   1.404       .  A
C1326      N1327   1.429       .  S
N1327      H1331   1.045       .  S
N1327      H1332   1.040   1_545  S
N1330      H1333   1.046       .  S
N1330      H1334   1.046       .  S
C1335      C1336   1.414       .  A
C1335      C1340   1.426       .  A
C1335      H1342   1.083       .  S
C1336      C1337   1.401       .  A
C1337      C1338   1.392       .  A
C1337      N1344   1.438       .  S
C1338      C1339   1.416       .  A
C1338      H1343   1.083       .  S
C1339      C1340   1.416       .  A
C1340      N1341   1.435       .  S
N1341      H1345   1.046       .  S
N1341      H1346   1.046       .  S
N1344      H1347   1.042       .  S
N1344      H1348   1.042       .  S
C1349      C1350   1.418       .  A
C1349      C1354   1.430       .  A
C1349      H1356   1.081       .  S
C1350      C1351   1.416       .  A
C1351      C1352   1.409       .  A
C1351      N1358   1.431       .  S
C1352      C1353   1.404   1_565  A
C1352      H1357   1.083   1_565  S
C1353      C1354   1.424   1_545  A
C1354      N1355   1.436   1_565  S
N1355      H1359   1.046       .  S
N1355      H1360   1.044       .  S
N1358      H1361   1.046       .  S
N1358      H1362   1.045       .  S
C1363      C1364   1.399       .  A
C1363      C1368   1.395   1_554  A
C1363      H1370   1.084       .  S
C1364      C1365   1.424       .  A
C1365      C1366   1.429   1_554  A
C1365      N1372   1.435       .  S
C1366      C1367   1.418       .  A
C1366      H1371   1.082       .  S
C1367      C1368   1.421       .  A
C1368      N1369   1.425       .  S
N1369      H1373   1.039       .  S
N1369      H1374   1.037       .  S
N1372      H1375   1.044       .  S
N1372      H1376   1.046       .  S
C1377      C1378   1.384       .  A
C1377      C1382   1.376       .  A
C1377      H1384   1.069       .  S
C1378      C1379   1.423       .  A
C1379      C1380   1.424       .  A
C1379      N1386   1.436       .  S
C1380      C1381   1.412       .  A
C1380      H1385   1.083       .  S
C1381      C1382   1.430       .  A
C1382      N1383   1.432   1_655  S
N1383      H1387   1.036       .  S
N1383      H1388   1.045   1_455  S
N1386      H1389   1.044       .  S
N1386      H1390   1.045       .  S
C1391      C1392   1.406       .  A
C1391      C1396   1.410       .  A
C1391      H1398   1.084       .  S
C1392      C1393   1.403       .  A
C1393      C1394   1.398       .  A
C1393      N1400   1.435       .  S
C1394      C1395   1.417       .  A
C1394      H1399   1.083       .  S
C1395      C1396   1.418       .  A
C1396      N1397   1.431       .  S
N1397      H1401   1.045       .  S
N1397      H1402   1.045       .  S
N1400      H1403   1.045       .  S
N1400      H1404   1.037       .  S
C1405      C1406   1.409       .  A
C1405      C1410   1.390       .  A
C1405      H1412   1.084       .  S
C1406      C1407   1.415       .  A
C1407      C1408   1.425       .  A
C1407      N1414   1.436       .  S
C1408      C1409   1.413       .  A
C1408      H1413   1.083       .  S
C1409      C1410   1.401       .  A
C1410      N1411   1.428       .  S
N1411      H1415   1.046       .  S
N1411      H1416   1.045       .  S
N1414      H1417   1.046       .  S
N1414      H1418   1.046       .  S
C1419      C1420   1.412       .  A
C1419      C1424   1.413       .  A
C1419      H1426   1.084       .  S
C1420      C1421   1.415       .  A
C1421      C1422   1.390       .  A
C1421      N1428   1.440       .  S
C1422      C1423   1.404       .  A
C1422      H1427   1.084   1_655  S
C1423      C1424   1.406       .  A
C1424      N1425   1.436       .  S
N1425      H1429   1.046       .  S
N1425      H1430   1.045       .  S
N1428      H1431   1.041       .  S
N1428      H1432   1.046   1_655  S
C1433      C1434   1.407       .  A
C1433      C1438   1.423       .  A
C1433      H1440   1.083       .  S
C1434      C1435   1.422       .  A
C1435      C1436   1.397       .  A
C1435      N1442   1.440       .  S
C1436      C1437   1.396       .  A
C1436      H1441   1.077       .  S
C1437      C1438   1.417       .  A
C1438      N1439   1.436       .  S
N1439      H1443   1.045       .  S
N1439      H1444   1.046       .  S
N1442      H1445   1.046       .  S
N1442      H1446   1.046       .  S
C1447      C1448   1.397       .  A
C1447      C1452   1.384       .  A
C1447      H1454   1.084   1_545  S
C1448      C1449   1.412       .  A
C1449      C1450   1.413       .  A
C1449      N1456   1.431       .  S
C1450      C1451   1.413       .  A
C1450      H1455   1.083       .  S
C1451      C1452   1.401       .  A
C1452      N1453   1.421       .  S
N1453      H1457   1.043   1_545  S
N1453      H1458   1.046       .  S
N1456      H1459   1.046       .  S
N1456      H1460   1.045       .  S
C1461      C1462   1.411       .  A
C1461      C1466   1.418       .  A
C1461      H1468   1.083       .  S
C1462      C1463   1.405       .  A
C1463      C1464   1.402       .  A
C1463      N1470   1.439       .  S
C1464      C1465   1.416       .  A
C1464      H1469   1.083       .  S
C1465      C1466   1.410       .  A
C1466      N1467   1.431       .  S
N1467      H1471   1.046       .  S
N1467      H1472   1.045       .  S
N1470      H1473   1.044       .  S
N1470      H1474   1.045       .  S
C1475      C1476   1.407       .  A
C1475      C1480   1.424       .  A
C1475      H1482   1.083       .  S
C1476      C1477   1.414       .  A
C1477      C1478   1.377       .  A
C1477      N1484   1.425   1_545  S
C1478      C1479   1.391       .  A
C1478      H1483   1.072       .  S
C1479      C1480   1.420       .  A
C1480      N1481   1.436       .  S
N1481      H1485   1.046       .  S
N1481      H1486   1.042       .  S
N1484      H1487   1.043       .  S
N1484      H1488   1.044       .  S
C1489      C1490   1.415       .  A
C1489      C1494   1.431       .  A
C1489      H1496   1.083       .  S
C1490      C1491   1.412       .  A
C1491      C1492   1.405       .  A
C1491      N1498   1.431       .  S
C1492      C1493   1.408   1_565  A
C1492      H1497   1.079   1_565  S
C1493      C1494   1.425   1_545  A
C1494      N1495   1.436   1_565  S
N1495      H1499   1.045       .  S
N1495      H1500   1.044       .  S
N1498      H1501   1.044       .  S
N1498      H1502   1.045       .  S
C1503      C1504   1.408       .  A
C1503      C1508   1.389       .  A
C1503      H1510   1.084   1_545  S
C1504      C1505   1.407       .  A
C1505      C1506   1.414       .  A
C1505      N1512   1.436       .  S
C1506      C1507   1.412       .  A
C1506      H1511   1.084       .  S
C1507      C1508   1.415       .  A
C1508      N1509   1.435       .  S
N1509      H1513   1.044   1_545  S
N1509      H1514   1.041       .  S
N1512      H1515   1.046       .  S
N1512      H1516   1.046       .  S
C1517      C1518   1.395       .  A
C1517      C1522   1.394       .  A
C1517      H1524   1.079       .  S
C1518      C1519   1.424       .  A
C1519      C1520   1.413       .  A
C1519      N1526   1.438       .  S
C1520      C1521   1.404       .  A
C1520      H1525   1.083       .  S
C1521      C1522   1.418       .  A
C1522      N1523   1.439       .  S
N1523      H1527   1.046       .  S
N1523      H1528   1.046       .  S
N1526      H1529   1.042       .  S
N1526      H1530   1.045       .  S
C1531      C1532   1.413       .  A
C1531      C1536   1.413       .  A
C1531      H1538   1.084       .  S
C1532      C1533   1.412       .  A
C1533      C1534   1.393       .  A
C1533      N1540   1.434       .  S
C1534      C1535   1.409       .  A
C1534      H1539   1.082       .  S
C1535      C1536   1.412       .  A
C1536      N1537   1.430       .  S
N1537      H1541   1.045       .  S
N1537      H1542   1.045       .  S
N1540      H1543   1.042       .  S
N1540      H1544   1.041       .  S
C1545      C1546   1.396       .  A
C1545      C1550   1.394       .  A
C1545      H1552   1.079       .  S
C1546      C1547   1.416       .  A
C1547      C1548   1.417       .  A
C1547      N1554   1.437       .  S
C1548      C1549   1.406       .  A
C1548      H1553   1.083       .  S
C1549      C1550   1.416       .  A
C1550      N1551   1.434       .  S
N1551      H1555   1.045       .  S
N1551      H1556   1.046       .  S
N1554      H1557   1.045       .  S
N1554      H1558   1.045       .  S
C1559      C1560   1.414   1_455  A
C1559      C1564   1.425       .  A
C1559      H1566   1.083   1_455  S
C1560      C1561   1.430   1_655  A
C1561      C1562   1.402       .  A
C1561      N1568   1.437   1_455  S
C1562      C1563   1.402       .  A
C1562      H1567   1.084       .  S
C1563      C1564   1.422       .  A
C1564      N1565   1.435       .  S
N1565      H1569   1.045       .  S
N1565      H1570   1.044       .  S
N1568      H1571   1.034       .  S
N1568      H1572   1.046       .  S
C1573      C1574   1.396       .  A
C1573      C1578   1.396       .  A
C1573      H1580   1.085       .  S
C1574      C1575   1.407       .  A
C1575      C1576   1.406       .  A
C1575      N1582   1.432       .  S
C1576      C1577   1.417       .  A
C1576      H1581   1.079       .  S
C1577      C1578   1.420       .  A
C1578      N1579   1.426       .  S
N1579      H1583   1.043       .  S
N1579      H1584   1.043       .  S
N1582      H1585   1.045       .  S
N1582      H1586   1.045       .  S
C1587      C1588   1.414       .  A
C1587      C1592   1.421       .  A
C1587      H1594   1.083       .  S
C1588      C1589   1.402       .  A
C1589      C1590   1.393       .  A
C1589      N1596   1.427       .  S
C1590      C1591   1.410       .  A
C1590      H1595   1.084       .  S
C1591      C1592   1.414       .  A
C1592      N1593   1.436       .  S
N1593      H1597   1.046       .  S
N1593      H1598   1.045       .  S
N1596      H1599   1.046       .  S
N1596      H1600   1.045       .  S
C1601      C1602   1.407       .  A
C1601      C1606   1.415       .  A
C1601      H1608   1.083       .  S
C1602      C1603   1.425       .  A
C1603      C1604   1.401       .  A
C1603      N1610   1.440       .  S
C1604      C1605   1.396       .  A
C1604      H1609   1.082       .  S
C1605      C1606   1.423       .  A
C1606      N1607   1.437       .  S
N1607      H1611   1.046       .  S
N1607      H1612   1.043       .  S
N1610      H1613   1.046       .  S
N1610      H1614   1.046       .  S
C1615      C1616   1.405       .  A
C1615      C1620   1.416       .  A
C1615      H1622   1.083       .  S
C1616      C1617   1.416       .  A
C1617      C1618   1.383       .  A
C1617      N1624   1.431       .  S
C1618      C1619   1.390       .  A
C1618      H1623   1.077       .  S
C1619      C1620   1.415       .  A
C1620      N1621   1.436       .  S
N1621      H1625   1.045       .  S
N1621      H1626   1.044       .  S
N1624      H1627   1.044       .  S
N1624      H1628   1.046       .  S
C1629      C1630   1.402       .  A
C1629      C1634   1.402       .  A
C1629      H1636   1.075       .  S
C1630      C1631   1.418       .  A
C1631      C1632   1.432       .  A
C1631      N1638   1.435       .  S
C1632      C1633   1.414   1_565  A
C1632      H1637   1.083   1_565  S
C1633      C1634   1.410   1_545  A
C1634      N1635   1.433   1_565  S
N1635      H1639   1.045   1_545  S
N1635      H1640   1.046   1_545  S
N1638      H1641   1.045       .  S
N1638      H1642   1.046       .  S
C1643      C1644   1.420       .  A
C1643      C1648   1.425       .  A
C1643      H1650   1.082       .  S
C1644      C1645   1.410       .  A
C1645      C1646   1.395       .  A
C1645      N1652   1.425       .  S
C1646      C1647   1.397   1_455  A
C1646      H1651   1.080   1_455  S
C1647      C1648   1.422   1_655  A
C1648      N1649   1.436   1_455  S
N1649      H1653   1.045       .  S
N1649      H1654   1.044       .  S
N1652      H1655   1.044       .  S
N1652      H1656   1.045       .  S
