geometry optimzed in LAMMPS
_audit_creation_date              2020-11-30 
_audit_creation_method            'lammps2cif' 
_symmetry_space_group_name_H-M    'P1' 
_symmetry_Int_Tables_number       1 
_symmetry_cell_setting            triclinic 
loop_ 
_symmetry_equiv_pos_as_xyz 
  x,y,z 
_cell_length_a                    25.11304953 
_cell_length_b                    25.143481467854176 
_cell_length_c                    25.41427552763451 
_cell_angle_alpha                 86.86925237193176 
_cell_angle_beta                  87.27833969757681 
_cell_angle_gamma                 87.41368810930872 
loop_ 
_atom_site_label 
_atom_site_type_symbol 
_atom_site_fract_x 
_atom_site_fract_y 
_atom_site_fract_z 
_atom_site_charge 
O1          O  0.04773367  0.88038693  0.02258069    -0.80500
O2          O  0.02494565  0.11942894  0.04601839    -0.65200
O3          O  0.99649500  0.97261138  0.05501695    -1.11800
C4          C  0.96815357  0.00989379  0.87286478     1.06300
O5          O  0.94555520  0.13043334  0.01296099    -0.78400
O6          O  0.88532270  0.06292318  0.96424587    -0.66000
Ni7        Ni  0.04636989  0.92128153  0.08399181     1.34900
C8          C  0.87088698  0.01820375  0.98427331     0.85100
O9          O  0.02601048  0.04541514  0.12584405    -0.79000
O10         O  0.04731817  0.95913074  0.14749638    -0.89300
C11         C  0.98665538  0.14976522  0.03034749     0.84700
O12         O  0.11212777  0.95047408  0.05836163    -0.67500
O13         O  0.96069803  0.05884115  0.88361950    -0.86700
C14         C  0.12544327  0.99630281  0.04057599     0.85500
C15         C  0.03847618  0.00759948  0.15907112     1.07100
H16         H  0.03400466  0.04470418  0.95895087     0.38900
O17         O  0.00051474  0.04205850  0.97915664    -1.09400
O18         O  0.90542622  0.98133353  0.99670064    -0.66100
Ni19       Ni  0.98232549  0.97008245  0.98176183     1.26300
O20         O  0.09102640  0.03509830  0.03569260    -0.66300
O21         O  0.97192492  0.97094961  0.90725298    -0.78600
C22         C  0.00623855  0.86365553  0.00366256     0.84900
O23         O  0.96962332  0.89611685  0.98780203    -0.65800
Ni24       Ni  0.95291364  0.09402012  0.94864342     1.27400
Ni25       Ni  0.01417737  0.04519410  0.05217234     1.26100
H26         H  0.96326819  0.96927750  0.07567607     0.39400
N27         N  0.00236102  0.94284374  0.57008516    -0.36300
N28         N  0.98616464  0.05724021  0.57410619    -0.56800
N29         N  0.00023034  0.06706620  0.46175819    -0.36300
N30         N  0.01780662  0.95270557  0.45733421    -0.56800
C31         C  0.00765939  0.94929412  0.62192599     0.27300
C32         C  0.02439453  0.89436813  0.55953977     0.27300
C33         C  0.00635239  0.11775011  0.47458339     0.27300
C34         C  0.02231080  0.06232384  0.41272814     0.27300
C35         C  0.97224842  0.04284633  0.62457681     0.35900
C36         C  0.97112124  0.10926152  0.56673478     0.35900
C37         C  0.01190242  0.89963607  0.46367987     0.35900
C38         C  0.01072493  0.96611796  0.40599083     0.35900
C39         C  0.03351125  0.90451757  0.64471631    -0.21500
C40         C  0.04438908  0.86986506  0.60514619    -0.21500
C41         C  0.03310168  0.14538609  0.43340885    -0.21500
C42         C  0.04320772  0.11023312  0.39420175    -0.21500
C43         C  0.94844480  0.08606998  0.64963973    -0.22600
C44         C  0.94736734  0.12814047  0.61277267    -0.22600
C45         C  0.00088154  0.87907820  0.41604815    -0.22600
C46         C  0.00052048  0.92133115  0.37926138    -0.22600
C47         C  0.98600102  0.99291914  0.64952398    -0.17900
C48         C  0.02112724  0.86971232  0.51125288    -0.17900
C49         C  0.01847886  0.01749574  0.38269701    -0.17900
C50         C  0.98376451  0.14057931  0.52042170    -0.17900
H51         H  0.04266609  0.89715702  0.68572787     0.15000
H52         H  0.06343234  0.83049837  0.60969748     0.15000
H53         H  0.04310383  0.18689271  0.43131119     0.15000
H54         H  0.06218918  0.11929933  0.35583266     0.15000
H55         H  0.93443436  0.08745995  0.69050119     0.13200
H56         H  0.93231433  0.16831047  0.61954466     0.13200
H57         H  0.99482728  0.83793017  0.40836720     0.13200
H58         H  0.99425675  0.91926855  0.33758756     0.13200
H59         H  0.97856514  0.96686325  0.54521525     0.26500
H60         H  0.97578815  0.03964057  0.48192623     0.26500
N61         N  0.43744599  0.00300387  0.06359959    -0.36300
N62         N  0.44020782  0.99940040  0.94939976    -0.56800
N63         N  0.55800526  0.99797449  0.94728308    -0.36300
N64         N  0.55576199  0.99582356  0.06132801    -0.56800
C65         C  0.38497899  0.99604252  0.05614140     0.27300
C66         C  0.44611385  0.99155081  0.11540497     0.27300
C67         C  0.54955055  0.98446081  0.89748635     0.27300
C68         C  0.61039351  0.98691963  0.95632316     0.27300
C69         C  0.38711191  0.01032936  0.95800943     0.35900
C70         C  0.45102072  0.00625812  0.89670975     0.35900
C71         C  0.54482781  0.00453633  0.11292913     0.35900
C72         C  0.60833780  0.00474378  0.05154914     0.35900
C73         C  0.35990100  0.98099229  0.10408985    -0.21500
C74         C  0.39833698  0.97776180  0.14120800    -0.21500
C75         C  0.59723482  0.96415303  0.87501280    -0.21500
C76         C  0.63558240  0.96644542  0.91174987    -0.21500
C77         C  0.36404351  0.02412529  0.91048529    -0.22600
C78         C  0.40438597  0.02186067  0.87183048    -0.22600
C79         C  0.59080730  0.01889134  0.13589652    -0.22600
C80         C  0.63097881  0.01858593  0.09720661    -0.22600
C81         C  0.35863353  0.00415923  0.00764565    -0.17900
C82         C  0.49513308  0.99604714  0.14074107    -0.17900
C83         C  0.63669942  0.99805187  0.00253285    -0.17900
C84         C  0.50118162  0.99365009  0.87034209    -0.17900
H85         H  0.31819462  0.97285216  0.11162407     0.15000
H86         H  0.39160732  0.96677235  0.18267476     0.15000
H87         H  0.60411070  0.94988299  0.83576320     0.15000
H88         H  0.67731305  0.95442998  0.90622950     0.15000
H89         H  0.32234141  0.03398242  0.90424018     0.13200
H90         H  0.39960971  0.02974380  0.83000230     0.13200
H91         H  0.59521884  0.02771360  0.17663023     0.13200
H92         H  0.67220605  0.02724485  0.10220996     0.13200
H93         H  0.46475568  0.01931581  0.03607741     0.26500
H94         H  0.53120227  0.01942777  0.97125835     0.26500
N95         N  0.94150097  0.56578025  0.96408948    -0.36300
N96         N  0.94356274  0.45274935  0.97045174    -0.56800
N97         N  0.05707224  0.44880803  0.98168455    -0.36300
N98         N  0.05660827  0.56132712  0.97305843    -0.56800
C99         C  0.89019695  0.55593956  0.97796347     0.27300
C100        C  0.95069078  0.61437336  0.98059274     0.27300
C101        C  0.04404734  0.40018743  0.00166665     0.27300
C102        C  0.10543152  0.45820033  0.99917458     0.27300
C103        C  0.89322579  0.46239095  0.95549398     0.35900
C104        C  0.95395309  0.40015123  0.96707992     0.35900
C105        C  0.04767477  0.61343895  0.96017643     0.35900
C106        C  0.10958488  0.55120087  0.96599561     0.35900
C107        C  0.86646793  0.59862110  0.00384505    -0.21500
C108        C  0.90477792  0.63589904  0.00519338    -0.21500
C109        C  0.08444896  0.37834134  0.03257054    -0.21500
C110        C  0.12334579  0.41533591  0.03119504    -0.21500
C111        C  0.87182400  0.41579834  0.94084806    -0.22600
C112        C  0.91035192  0.37600876  0.94880528    -0.22600
C113        C  0.09518371  0.63685295  0.94445915    -0.22600
C114        C  0.13457917  0.59706834  0.94762916    -0.22600
C115        C  0.86428228  0.51027917  0.96512347    -0.17900
C116        C  0.99849385  0.64075819  0.97024713    -0.17900
C117        C  0.13517676  0.50243770  0.98222269    -0.17900
C118        C  0.99917748  0.37352881  0.98784194    -0.17900
H119        H  0.82562897  0.60281574  0.01917692     0.15000
H120        H  0.89931644  0.67462940  0.02175240     0.15000
H121        H  0.08637086  0.33929196  0.05270314     0.15000
H122        H  0.16118989  0.41056110  0.04996227     0.15000
H123        H  0.83164135  0.41049861  0.92902412     0.13200
H124        H  0.90593722  0.33393373  0.94408072     0.13200
H125        H  0.10094780  0.67848073  0.93353540     0.13200
H126        H  0.17682931  0.60186293  0.93949508     0.13200
H127        H  0.96712263  0.54329419  0.93963127     0.26500
H128        H  0.03769862  0.47089184  0.95180830     0.26500
N129        N  0.06046364  0.55613780  0.49020113    -0.36300
N130        N  0.05118166  0.44156626  0.48929498    -0.56800
N131        N  0.93895657  0.45587415  0.50885667    -0.36300
N132        N  0.94812440  0.57044833  0.51120724    -0.56800
C133        C  0.11113730  0.53735505  0.49509269     0.27300
C134        C  0.05709577  0.60530553  0.50943519     0.27300
C135        C  0.94514217  0.40289955  0.52069197     0.27300
C136        C  0.88974943  0.47152225  0.52700900     0.27300
C137        C  0.10126576  0.44541368  0.46870356     0.35900
C138        C  0.03727523  0.39123011  0.48324531     0.35900
C139        C  0.96102678  0.62128660  0.49907989     0.35900
C140        C  0.89532930  0.56842437  0.50501338     0.35900
C141        C  0.14043635  0.57474320  0.51801913    -0.21500
C142        C  0.10607842  0.61766228  0.52741036    -0.21500
C143        C  0.89915285  0.38466045  0.54666369    -0.21500
C144        C  0.86387025  0.42789801  0.55001131    -0.21500
C145        C  0.11957385  0.39723475  0.44903954    -0.22600
C146        C  0.07879487  0.36264856  0.45839332    -0.22600
C147        C  0.91614545  0.65195380  0.48520110    -0.22600
C148        C  0.87426008  0.61828427  0.48904121    -0.22600
C149        C  0.13234257  0.48962844  0.47450414    -0.17900
C150        C  0.01185981  0.64043584  0.50657978    -0.17900
C151        C  0.86588043  0.52283549  0.51768776    -0.17900
C152        C  0.98958555  0.37013529  0.50492195    -0.17900
H153        H  0.18242693  0.57182711  0.52611932     0.15000
H154        H  0.11632365  0.65421524  0.54434825     0.15000
H155        H  0.89119167  0.34415424  0.56035684     0.15000
H156        H  0.82343256  0.42707704  0.56665779     0.15000
H157        H  0.15880351  0.38753160  0.43177200     0.13200
H158        H  0.08006569  0.32098138  0.44950797     0.13200
H159        H  0.91369979  0.69424008  0.47459993     0.13200
H160        H  0.83296420  0.62939711  0.48202981     0.13200
H161        H  0.03207560  0.53921586  0.46845391     0.26500
H162        H  0.96350048  0.47885656  0.48361228     0.26500
O163        O  0.62945341  0.45468475  0.49035429    -0.80500
O164        O  0.39208004  0.45923303  0.45373242    -0.65200
O165        O  0.53589768  0.49785695  0.45237548    -1.11800
C166        C  0.48683917  0.52702696  0.63215713     1.06300
O167        O  0.37216377  0.53709241  0.48677711    -0.78400
O168        O  0.43291173  0.60209091  0.53878655    -0.66000
Ni169      Ni  0.59140925  0.45046639  0.42703487     1.34900
C170        C  0.47643192  0.62075292  0.52061874     0.85100
O171        O  0.46930750  0.46442326  0.37770713    -0.79000
O172        O  0.55689725  0.44585262  0.36127438    -0.89300
C173        C  0.35788535  0.49463186  0.46783901     0.84700
O174        O  0.56541146  0.38252199  0.45284684    -0.67500
O175        O  0.43841681  0.52753184  0.61906419    -0.86700
C176        C  0.51887534  0.36671710  0.46521535     0.85500
C177        C  0.50905711  0.45380841  0.34642891     1.07100
H178        H  0.46287063  0.45535303  0.54479157     0.38900
O179        O  0.46350121  0.48908913  0.52475873    -1.09400
O180        O  0.51654576  0.58961926  0.50881036    -0.66100
Ni181      Ni  0.53340967  0.51354520  0.52566779     1.26300
O182        O  0.47847038  0.39930006  0.46719247    -0.66300
O183        O  0.52753848  0.52576537  0.59985419    -0.78600
C184        C  0.64187571  0.49897429  0.50719269     0.84900
O185        O  0.60600935  0.53229508  0.52295234    -0.65800
Ni186      Ni  0.40639929  0.53223460  0.55251043     1.27400
Ni187      Ni  0.46496377  0.47558499  0.45146128     1.26100
H188        H  0.53823907  0.53100818  0.43120165     0.39400
N189        N  0.44281990  0.47946787  0.04608402    -0.36300
N190        N  0.55739713  0.48295299  0.04305016    -0.56800
N191        N  0.55744343  0.50799033  0.93137014    -0.36300
N192        N  0.44308756  0.50405622  0.93498423    -0.56800
C193        C  0.45399817  0.45445374  0.09286915     0.27300
C194        C  0.39227734  0.46882243  0.03583363     0.27300
C195        C  0.60907321  0.49384856  0.93859973     0.27300
C196        C  0.54872288  0.50163991  0.88021466     0.27300
C197        C  0.54609086  0.48399024  0.09528384     0.35900
C198        C  0.60620559  0.50273403  0.03434224     0.35900
C199        C  0.39067888  0.51275456  0.94658717     0.35900
C200        C  0.45190642  0.52310461  0.88494981     0.35900
C201        C  0.40999636  0.42712600  0.11267018    -0.21500
C202        C  0.37084321  0.43622134  0.07647149    -0.21500
C203        C  0.63360326  0.47835809  0.89146579    -0.21500
C204        C  0.59550504  0.48396507  0.85431579    -0.21500
C205        C  0.58778000  0.50502575  0.12013600    -0.22600
C206        C  0.62606990  0.51702471  0.08125146    -0.22600
C207        C  0.36599058  0.53801011  0.90374854    -0.22600
C208        C  0.40489051  0.54404336  0.86432533    -0.22600
C209        C  0.50036296  0.46197249  0.12043510    -0.17900
C210        C  0.36433824  0.49216302  0.99294306    -0.17900
C211        C  0.50033897  0.51474271  0.85612153    -0.17900
C212        C  0.63507319  0.49975630  0.98567886    -0.17900
H213        H  0.40598641  0.40458552  0.15006071     0.15000
H214        H  0.33076885  0.42189954  0.08031592     0.15000
H215        H  0.67488082  0.46543280  0.88431499     0.15000
H216        H  0.60165872  0.47627988  0.81293205     0.15000
H217        H  0.59083474  0.50981071  0.16193637     0.13200
H218        H  0.66476346  0.53250513  0.08701699     0.13200
H219        H  0.32405814  0.54898986  0.90050521     0.13200
H220        H  0.39900772  0.56048290  0.82467402     0.13200
H221        H  0.46534858  0.50864989  0.02625165     0.26500
H222        H  0.53157887  0.52706232  0.95825953     0.26500
N223        N  0.50113462  0.93441846  0.56371247    -0.36300
N224        N  0.50081806  0.93567138  0.45036984    -0.56800
N225        N  0.50310986  0.05355839  0.44569975    -0.36300
N226        N  0.50804973  0.05247525  0.55850394    -0.56800
C227        C  0.51007848  0.88149172  0.55595523     0.27300
C228        C  0.51481320  0.94338091  0.61338941     0.27300
C229        C  0.51592475  0.04166009  0.39518190     0.27300
C230        C  0.51889828  0.10370433  0.45220130     0.27300
C231        C  0.48810699  0.88428424  0.46170033     0.35900
C232        C  0.48779606  0.94763498  0.39989450     0.35900
C233        C  0.49565939  0.04218771  0.61043442     0.35900
C234        C  0.49697551  0.10530576  0.54781731     0.35900
C235        C  0.52934658  0.85642830  0.60149264    -0.21500
C236        C  0.53277842  0.89535237  0.63745658    -0.21500
C237        C  0.54133943  0.08431204  0.36953782    -0.21500
C238        C  0.54259355  0.12368215  0.40531969    -0.21500
C239        C  0.46730925  0.86342668  0.41816204    -0.22600
C240        C  0.46638318  0.90365662  0.37933682    -0.22600
C241        C  0.47569830  0.08872015  0.63262544    -0.22600
C242        C  0.47692818  0.12867470  0.59310571    -0.22600
C243        C  0.49828160  0.85515135  0.50980763    -0.17900
C244        C  0.50700717  0.99273661  0.63883818    -0.17900
C245        C  0.50885721  0.13269749  0.49843662    -0.17900
C246        C  0.49994861  0.99575832  0.37065008    -0.17900
H247        H  0.53959234  0.81441416  0.60823459     0.15000
H248        H  0.54613387  0.88873027  0.67723486     0.15000
H249        H  0.55549776  0.08754061  0.32864240     0.15000
H250        H  0.55843339  0.16280058  0.39750983     0.15000
H251        H  0.45425206  0.82340100  0.41462013     0.13200
H252        H  0.45237724  0.90041566  0.34007713     0.13200
H253        H  0.46326570  0.09371104  0.67348446     0.13200
H254        H  0.46548137  0.17028203  0.59740297     0.13200
H255        H  0.48121874  0.96198313  0.53884634     0.26500
H256        H  0.47877578  0.03129825  0.47198694     0.26500
C257        C  0.55310461  0.27794106  0.50329379    -0.05400
C258        C  0.51233210  0.30747594  0.47703100     0.00500
C259        C  0.46996130  0.27878767  0.45820340    -0.08100
C260        C  0.46936224  0.22256762  0.46793735    -0.05500
C261        C  0.51029828  0.19325713  0.49402974     0.00500
C262        C  0.55340970  0.22159883  0.51124835    -0.08000
C263        C  0.60126914  0.19220306  0.53518925     0.62400
H264        H  0.58590567  0.29950256  0.51651813     0.13100
H265        H  0.43735230  0.20051301  0.45379598     0.13100
C266        C  0.42724434  0.30656372  0.42492205     0.62600
F267        F  0.63983041  0.22668920  0.54725353    -0.22500
F268        F  0.62408625  0.15700937  0.49981099    -0.19900
F269        F  0.58576423  0.16427893  0.58116926    -0.19500
F270        F  0.45092165  0.33389885  0.38189572    -0.19600
F271        F  0.39670304  0.34185570  0.45464332    -0.19900
F272        F  0.39327327  0.27082780  0.40617286    -0.22600
C273        C  0.53116908  0.70303475  0.50473088    -0.05400
C274        C  0.48057341  0.68133271  0.51509346     0.00500
C275        C  0.43583846  0.71841479  0.52185916    -0.08100
C276        C  0.44439346  0.77384071  0.52129988    -0.05500
C277        C  0.49487359  0.79493579  0.51176599     0.00500
C278        C  0.53891596  0.75877991  0.50149365    -0.08000
C279        C  0.59490346  0.77625812  0.48641303     0.62400
H280        H  0.56556788  0.67610386  0.49864751     0.13100
H281        H  0.41105892  0.80191574  0.52779399     0.13100
C282        C  0.37853457  0.70094941  0.52883293     0.62600
F283        F  0.61182855  0.75469785  0.43921488    -0.22500
F284        F  0.62897142  0.75752459  0.52505815    -0.19900
F285        F  0.59849785  0.83091069  0.48013316    -0.19500
F286        F  0.37078156  0.67417924  0.57740399    -0.19600
F287        F  0.36754805  0.66836886  0.48889445    -0.19900
F288        F  0.34195631  0.74382827  0.52667158    -0.22600
C289        C  0.52820681  0.41259631  0.26099306    -0.05400
C290        C  0.50006795  0.45213075  0.28943662     0.00500
C291        C  0.46852462  0.49205718  0.26213024    -0.08100
C292        C  0.46799703  0.49184062  0.20699878    -0.05500
C293        C  0.49815872  0.45402234  0.17866136     0.00500
C294        C  0.52777094  0.41276257  0.20567287    -0.08000
C295        C  0.55894273  0.36954371  0.17627770     0.62400
H296        H  0.55181702  0.38232404  0.28246922     0.13100
H297        H  0.44539461  0.52255174  0.18502356     0.13100
C298        C  0.43768351  0.53648597  0.29018922     0.62600
F299        F  0.57935046  0.32981728  0.21048535    -0.22500
F300        F  0.60121251  0.39108746  0.14698652    -0.19900
F301        F  0.52596925  0.34634378  0.14284557    -0.19500
F302        F  0.47135044  0.56226749  0.32095110    -0.19600
F303        F  0.39649253  0.51547412  0.32161572    -0.19900
F304        F  0.41558612  0.57428421  0.25498323    -0.22600
C305        C  0.50629401  0.56601081  0.77072574    -0.05400
C306        C  0.49971834  0.51668594  0.79818270     0.00500
C307        C  0.49061371  0.47063664  0.77090111    -0.08100
C308        C  0.48937624  0.47553453  0.71587284    -0.05500
C309        C  0.49531233  0.52487455  0.68849434     0.00500
C310        C  0.50278392  0.57114052  0.71575956    -0.08000
C311        C  0.50399210  0.62557902  0.68701583     0.62400
H312        H  0.51213850  0.60065064  0.79299022     0.13100
H313        H  0.48232278  0.44111597  0.69369849     0.13100
C314        C  0.48135880  0.41700801  0.79979908     0.62600
F315        F  0.51276644  0.66535290  0.72078080    -0.22500
F316        F  0.45558858  0.63718017  0.66423243    -0.19900
F317        F  0.54425993  0.62582470  0.64797480    -0.19500
F318        F  0.43847136  0.42151687  0.83567896    -0.19600
F319        F  0.52621708  0.39970945  0.82631585    -0.19900
F320        F  0.47044157  0.37840192  0.76549938    -0.22600
C321        C  0.21862686  0.45553709  0.50602924    -0.05400
C322        C  0.19061769  0.48381979  0.46641517     0.00500
C323        C  0.21813037  0.51129029  0.42411418    -0.08100
C324        C  0.27381956  0.51178680  0.42443496    -0.05500
C325        C  0.30143013  0.48574381  0.46546979     0.00500
C326        C  0.27419901  0.45637400  0.50654623    -0.08000
C327        C  0.30354658  0.42820334  0.55175399     0.62400
H328        H  0.19623364  0.43514406  0.53793778     0.13100
H329        H  0.29614908  0.53399923  0.39373454     0.13100
C330        C  0.18877057  0.54008934  0.37933942     0.62600
F331        F  0.26898841  0.40306224  0.58814252    -0.22500
F332        F  0.33087766  0.46463104  0.57774257    -0.19900
F333        F  0.33942747  0.39005514  0.53236652    -0.19500
F334        F  0.15709818  0.50486520  0.35667881    -0.19600
F335        F  0.22371747  0.56068521  0.34045922    -0.19900
F336        F  0.15702850  0.58190966  0.39800133    -0.22600
C337        C  0.78669674  0.51622067  0.46673347    -0.05400
C338        C  0.80735907  0.52654508  0.51504603     0.00500
C339        C  0.77303400  0.53367481  0.56000124    -0.08100
C340        C  0.71839776  0.52551184  0.55594939    -0.05500
C341        C  0.69832341  0.51120253  0.50833869     0.00500
C342        C  0.73224997  0.50912700  0.46227969    -0.08000
C343        C  0.71124405  0.49999561  0.40854606     0.62400
H344        H  0.81410562  0.51175157  0.43286107     0.13100
H345        H  0.69123498  0.52880250  0.59013328     0.13100
C346        C  0.79431898  0.54966924  0.61148089     0.62600
F347        F  0.74933669  0.50955889  0.36833340    -0.22500
F348        F  0.66753035  0.53408903  0.39915165    -0.19900
F349        F  0.69659055  0.44783133  0.40673945    -0.19500
F350        F  0.81755606  0.59845017  0.60352874    -0.19600
F351        F  0.83213369  0.51216046  0.62934041    -0.19900
F352        F  0.75417803  0.55423418  0.65042772    -0.22600
C353        C  0.78277559  0.47422505  0.00896570    -0.05400
C354        C  0.80534523  0.50976025  0.97059045     0.00500
C355        C  0.77204819  0.54125995  0.93683144    -0.08100
C356        C  0.71674128  0.53988202  0.94655156    -0.05500
C357        C  0.69407674  0.50214031  0.98289358     0.00500
C358        C  0.72793013  0.46632417  0.01238561    -0.08000
C359        C  0.70965308  0.41749943  0.04516749     0.62400
H360        H  0.80889304  0.44924892  0.03365038     0.13100
H361        H  0.69044859  0.56625013  0.92349448     0.13100
C362        C  0.79431963  0.57260291  0.88847018     0.62600
F363        F  0.74223264  0.37372430  0.03253784    -0.22500
F364        F  0.65802477  0.40473366  0.03639688    -0.19900
F365        F  0.71376952  0.42590409  0.09809977    -0.19500
F366        F  0.82731120  0.53929070  0.85851874    -0.19600
F367        F  0.82303182  0.61449858  0.90303094    -0.19900
F368        F  0.75416210  0.59338772  0.85689363    -0.22600
C369        C  0.21814087  0.53060532  0.01984299    -0.05400
C370        C  0.19411658  0.49824633  0.98527401     0.00500
C371        C  0.22624965  0.46354841  0.95359632    -0.08100
C372        C  0.28132180  0.45956062  0.96078571    -0.05500
C373        C  0.30532310  0.49258806  0.99457570     0.00500
C374        C  0.27380466  0.53017695  0.02312579    -0.08000
C375        C  0.29912539  0.57157244  0.05415524     0.62400
H376        H  0.19289447  0.55760685  0.04282072     0.13100
H377        H  0.30676080  0.43264551  0.93787449     0.13100
C378        C  0.20338112  0.43392768  0.90978548     0.62600
F379        F  0.26134876  0.60711428  0.07534744    -0.22500
F380        F  0.33398715  0.60042359  0.02121310    -0.19900
F381        F  0.32680267  0.54695702  0.09508553    -0.19500
F382        F  0.17413706  0.46932789  0.87773728    -0.19600
F383        F  0.17088095  0.39453749  0.93057729    -0.19900
F384        F  0.24314312  0.40989400  0.87849895    -0.22600
C385        C  0.47270527  0.95956075  0.72863474    -0.05400
C386        C  0.50811288  0.99200212  0.69832998     0.00500
C387        C  0.54519503  0.02049219  0.72525370    -0.08100
C388        C  0.53919606  0.02250779  0.78068173    -0.05500
C389        C  0.50372160  0.99007908  0.81102419     0.00500
C390        C  0.47328578  0.95457798  0.78419099    -0.08000
C391        C  0.44356324  0.90866955  0.81129850     0.62400
H392        H  0.44644735  0.93520793  0.70845306     0.13100
H393        H  0.56412419  0.04791348  0.80112186     0.13100
C394        C  0.59397045  0.04413127  0.69675831     0.62600
F395        F  0.45980177  0.86198395  0.78764126    -0.22500
F396        F  0.38936560  0.91749714  0.80564914    -0.19900
F397        F  0.45311719  0.90106468  0.86432068    -0.19500
F398        F  0.57975663  0.08792871  0.66473703    -0.19600
F399        F  0.61999182  0.00610212  0.66637496    -0.19900
F400        F  0.62980988  0.06018146  0.73188649    -0.22600
C401        C  0.46399977  0.03226297  0.22756181    -0.05400
C402        C  0.49437821  0.99346985  0.20009220     0.00500
C403        C  0.52254172  0.95265256  0.22947962    -0.08100
C404        C  0.52752455  0.95795741  0.28390104    -0.05500
C405        C  0.49757263  0.99700942  0.31151235     0.00500
C406        C  0.46187056  0.03203642  0.28318308    -0.08000
C407        C  0.41836527  0.06528258  0.31130199     0.62400
H408        H  0.44022681  0.06161303  0.20511342     0.13100
H409        H  0.55241826  0.92935827  0.30604797     0.13100
C410        C  0.54226265  0.90120506  0.20486238     0.62600
F411        F  0.38055248  0.08557416  0.27682887    -0.22500
F412        F  0.43955947  0.10766668  0.33408294    -0.19900
F413        F  0.39244453  0.03389073  0.35001698    -0.19500
F414        F  0.58548270  0.90970976  0.17036465    -0.19600
F415        F  0.50156588  0.88131350  0.17787319    -0.19900
F416        F  0.55748692  0.86261177  0.24283776    -0.22600
C417        C  0.05496477  0.72541383  0.47856145    -0.05400
C418        C  0.01783925  0.69853023  0.51234956     0.00500
C419        C  0.98685274  0.72769869  0.54991150    -0.08100
C420        C  0.98712065  0.78339009  0.54576174    -0.05500
C421        C  0.02399651  0.81037618  0.51201563     0.00500
C422        C  0.06161836  0.78039004  0.48099208    -0.08000
C423        C  0.11026291  0.80342816  0.45182994     0.62400
H424        H  0.08048577  0.70287011  0.45141409     0.13100
H425        H  0.95983255  0.80611512  0.57119186     0.13100
C426        C  0.95481425  0.70254132  0.59622188     0.62600
F427        F  0.15524615  0.77276470  0.46527425    -0.22500
F428        F  0.11861591  0.85516367  0.46417776    -0.19900
F429        F  0.10480277  0.80218932  0.39805017    -0.19500
F430        F  0.96613301  0.72670269  0.64182040    -0.19600
F431        F  0.96674901  0.64862622  0.60451219    -0.19900
F432        F  0.90093584  0.71033533  0.58805655    -0.22600
C433        C  0.00941698  0.22554374  0.55479540    -0.05400
C434        C  0.97801800  0.19974446  0.52059294     0.00500
C435        C  0.94660040  0.23073146  0.48419105    -0.08100
C436        C  0.95270725  0.28599360  0.47932466    -0.05500
C437        C  0.98588493  0.31135235  0.51200281     0.00500
C438        C  0.01224952  0.28127261  0.55247221    -0.08000
C439        C  0.04190065  0.30798092  0.59381194     0.62400
H440        H  0.03252371  0.20147457  0.58289152     0.13100
H441        H  0.93052970  0.30990354  0.45028451     0.13100
C442        C  0.90541749  0.20844180  0.45042174     0.62600
F443        F  0.05840510  0.27182129  0.63340719    -0.22500
F444        F  0.00869501  0.34639871  0.61684132    -0.19900
F445        F  0.08649790  0.33167753  0.57098999    -0.19500
F446        F  0.89989656  0.15420749  0.45894863    -0.19600
F447        F  0.91932861  0.21901804  0.39769409    -0.19900
F448        F  0.85624009  0.23330360  0.46171491    -0.22600
C449        C  0.98376527  0.79069687  0.94931330    -0.05400
C450        C  0.00276312  0.80646246  0.99684054     0.00500
C451        C  0.01826527  0.76762005  0.03649591    -0.08100
C452        C  0.01625417  0.71380529  0.02582778    -0.05500
C453        C  0.99851602  0.69828523  0.97791480     0.00500
C454        C  0.98126838  0.73668765  0.93911636    -0.08000
C455        C  0.96076413  0.72049100  0.88736609     0.62400
H456        H  0.97153460  0.82109247  0.91994945     0.13100
H457        H  0.02849962  0.68304470  0.05484143     0.13100
C458        C  0.03481433  0.78234569  0.09052080     0.62600
F459        F  0.95064330  0.76418885  0.85321679    -0.22500
F460        F  0.91381261  0.69423609  0.89684193    -0.19900
F461        F  0.99816255  0.68699663  0.86276838    -0.19500
F462        F  0.99639041  0.81662615  0.11256933    -0.19600
F463        F  0.08326969  0.80655597  0.08614438    -0.19900
F464        F  0.04045442  0.73796339  0.12486268    -0.22600
C465        C  0.01592212  0.22517655  0.97493977    -0.05400
C466        C  0.99305230  0.20679899  0.02342984     0.00500
C467        C  0.97278093  0.24274238  0.06085747    -0.08100
C468        C  0.97582048  0.29742004  0.04794093    -0.05500
C469        C  0.99804888  0.31576064  0.99902125     0.00500
C470        C  0.01841494  0.27967788  0.96171358    -0.08000
C471        C  0.04111517  0.29880274  0.90788866     0.62400
H472        H  0.03035956  0.19629929  0.94688993     0.13100
H473        H  0.96070392  0.32637275  0.07560293     0.13100
C474        C  0.94848965  0.22320010  0.11376993     0.62600
F475        F  0.08329538  0.33108311  0.91368224    -0.22500
F476        F  0.00207054  0.32743682  0.88048913    -0.19900
F477        F  0.05948140  0.25675820  0.87802902    -0.19500
F478        F  0.98652717  0.19330882  0.14142633    -0.19600
F479        F  0.90589377  0.19187725  0.10629332    -0.19900
F480        F  0.93018104  0.26505791  0.14394767    -0.22600
C481        C  0.73050227  0.95875829  0.01136377    -0.05400
C482        C  0.69661086  0.00328440  0.99912372     0.00500
C483        C  0.71980274  0.05226043  0.98371673    -0.08100
C484        C  0.77601770  0.05498338  0.98064113    -0.05500
C485        C  0.81095328  0.01041606  0.99205405     0.00500
C486        C  0.78711197  0.96106143  0.00787320    -0.08000
C487        C  0.82047555  0.91044052  0.02018034     0.62400
H488        H  0.71190304  0.92169921  0.02315948     0.13100
H489        H  0.79299910  0.09277100  0.96872144     0.13100
C490        C  0.68484620  0.10173343  0.97073977     0.62600
F491        F  0.78918566  0.86761557  0.03457870    -0.22500
F492        F  0.85262333  0.91782139  0.06165674    -0.19900
F493        F  0.85162870  0.89730743  0.97603825    -0.19500
F494        F  0.65361680  0.09290066  0.92896727    -0.19600
F495        F  0.71468643  0.14570518  0.95684616    -0.19900
F496        F  0.65209057  0.11367354  0.01415584    -0.22600
C497        C  0.26798116  0.05003064  0.02222157    -0.05400
C498        C  0.29819823  0.00357615  0.00950003     0.00500
C499        C  0.27088686  0.95641158  0.00303273    -0.08100
C500        C  0.21475396  0.95691152  0.01135272    -0.05500
C501        C  0.18415246  0.00281420  0.02581210     0.00500
C502        C  0.21147924  0.05077948  0.03008733    -0.08000
C503        C  0.18174426  0.10230066  0.04429817     0.62400
H504        H  0.28941693  0.08574071  0.02693570     0.13100
H505        H  0.19418966  0.92056740  0.00716169     0.13100
C506        C  0.30114340  0.90529879  0.98817602     0.62600
F507        F  0.21607600  0.14308536  0.04932895    -0.22500
F508        F  0.15322040  0.09480488  0.09182365    -0.19900
F509        F  0.14717065  0.11835256  0.00515078    -0.19500
F510        F  0.33913691  0.89120876  0.02461899    -0.19600
F511        F  0.32609568  0.91272966  0.93884003    -0.19900
F512        F  0.26768026  0.86318655  0.98660023    -0.22600
C513        C  0.02645734  0.00481309  0.73397484    -0.05400
C514        C  0.98268852  0.98859052  0.70781021     0.00500
C515        C  0.93548640  0.97408068  0.73663608    -0.08100
C516        C  0.93251938  0.97954544  0.79145393    -0.05500
C517        C  0.97537115  0.99857820  0.81708772     0.00500
C518        C  0.02369272  0.00995609  0.78862130    -0.08000
C519        C  0.07188875  0.02773730  0.81594633     0.62400
H520        H  0.06218561  0.01514369  0.71078912     0.13100
H521        H  0.89635653  0.97046341  0.81449913     0.13100
C522        C  0.88871284  0.95343064  0.70937921     0.62600
F523        F  0.11534770  0.03477039  0.78103467    -0.22500
F524        F  0.08638984  0.98959141  0.85451993    -0.19900
F525        F  0.05982210  0.07562344  0.83896417    -0.19500
F526        F  0.90429363  0.90628482  0.68637870    -0.19600
F527        F  0.87162783  0.99030520  0.67077480    -0.19900
F528        F  0.84593771  0.94365765  0.74443671    -0.22600
C529        C  0.99152603  0.04164591  0.23776840    -0.05400
C530        C  0.03873706  0.01945702  0.21492334     0.00500
C531        C  0.08216058  0.00416459  0.24665857    -0.08100
C532        C  0.07467996  0.00621487  0.30154528    -0.05500
C533        C  0.02574502  0.02384961  0.32466436     0.00500
C534        C  0.98409408  0.04410132  0.29264702    -0.08000
C535        C  0.93137611  0.06585136  0.31632482     0.62400
H536        H  0.95931789  0.05416891  0.21238725     0.13100
H537        H  0.10630110  0.99208884  0.32702491     0.13100
C538        C  0.13584997  0.98542972  0.22290734     0.62600
F539        F  0.89585197  0.08166133  0.27786925    -0.22500
F540        F  0.93976984  0.10972912  0.34480270    -0.19900
F541        F  0.90810544  0.02709160  0.34935914    -0.19500
F542        F  0.15024975  0.01854742  0.17982171    -0.19600
F543        F  0.13311137  0.93393576  0.20712552    -0.19900
F544        F  0.17548213  0.98617689  0.25890878    -0.22600
loop_ 
_geom_bond_atom_site_label_1 
_geom_bond_atom_site_label_2 
_geom_bond_distance 
_geom_bond_site_symmetry_2 
_ccdc_geom_bond_type 
O1           Ni7   1.913       .  S
O1           C22   1.266       .  A
O2          Ni25   1.895       .  S
O2           C11   1.266   1_455  A
O3           Ni7   1.901   1_655  S
O3          Ni25   1.894   1_665  S
O3          Ni19   1.917   1_554  S
O3           H26   0.969       .  S
C4           O21   1.280   1_545  A
C4           O13   1.279       .  A
C4          C517   1.462   1_545  S
O5          Ni24   1.914   1_554  S
O5           C11   1.268       .  A
O6          Ni24   1.916       .  S
O6            C8   1.269       .  A
Ni7          O10   1.919       .  S
Ni7          O12   1.909       .  S
C8           O18   1.278   1_545  A
C8          C485   1.529       .  S
O9          Ni25   1.910       .  S
O9           C15   1.275       .  A
O10          C15   1.277   1_565  A
C11         C466   1.450       .  S
O12          C14   1.268       .  A
O13         Ni24   1.914       .  S
C14          O20   1.279   1_565  A
C14         C501   1.518   1_565  S
C15         C530   1.467       .  S
H16          O17   0.967       .  S
O17         Ni25   1.910   1_556  S
O17         Ni19   1.883   1_445  S
O17         Ni24   1.890   1_455  S
O18         Ni19   1.961       .  S
Ni19         O23   1.898       .  S
Ni19         O21   1.923       .  S
O20         Ni25   1.963       .  S
C22          O23   1.267   1_454  A
C22         C450   1.465   1_554  S
N27          C32   1.351       .  A
N27          C31   1.350       .  A
N27          H59   1.041   1_455  S
N28          C35   1.348       .  A
N28          C36   1.351       .  A
N29          C34   1.349       .  A
N29          C33   1.350       .  A
N29          H60   1.041   1_455  S
N30          C37   1.349       .  A
N30          C38   1.348       .  A
C31          C39   1.387       .  A
C31          C47   1.409   1_455  A
C32          C48   1.412       .  A
C32          C40   1.387       .  A
C33          C41   1.387       .  A
C33          C50   1.410   1_455  A
C34          C49   1.405       .  A
C34          C42   1.386       .  A
C35          C47   1.411   1_545  A
C35          C43   1.387       .  A
C36          C50   1.411       .  A
C36          C44   1.385       .  A
C37          C45   1.386       .  A
C37          C48   1.412       .  A
C38          C46   1.386       .  A
C38          C49   1.409   1_565  A
C39          C40   1.376       .  A
C39          H51   1.082       .  S
C40          H52   1.083       .  S
C41          C42   1.375       .  A
C41          H53   1.082       .  S
C42          H54   1.082       .  S
C43          C44   1.374       .  A
C43          H55   1.082       .  S
C44          H56   1.082       .  S
C45          C46   1.376       .  A
C45          H57   1.082   1_455  S
C46          H58   1.082   1_455  S
C47         C514   1.478       .  S
C48         C421   1.490       .  S
C49         C533   1.478       .  S
C50         C434   1.488       .  S
N61          C66   1.358   1_545  A
N61          C65   1.360   1_545  A
N61          H93   1.037       .  S
N62          C69   1.359   1_565  A
N62          C70   1.357   1_565  A
N63          C68   1.360       .  A
N63          C67   1.357       .  A
N63          H94   1.039   1_565  S
N64          C71   1.355   1_565  A
N64          C72   1.358   1_565  A
C65          C73   1.387       .  A
C65          C81   1.427   1_565  A
C66          C82   1.428       .  A
C66          C74   1.388       .  A
C67          C75   1.390       .  A
C67          C84   1.429       .  A
C68          C83   1.421   1_556  A
C68          C76   1.384       .  A
C69          C81   1.425   1_556  A
C69          C77   1.385       .  A
C70          C84   1.429   1_545  A
C70          C78   1.388       .  A
C71          C79   1.389       .  A
C71          C82   1.424   1_545  A
C72          C80   1.384       .  A
C72          C83   1.420   1_545  A
C73          C74   1.378       .  A
C73          H85   1.082       .  S
C74          H86   1.082       .  S
C75          C76   1.378       .  A
C75          H87   1.082       .  S
C76          H88   1.082       .  S
C77          C78   1.379       .  A
C77          H89   1.082       .  S
C78          H90   1.082       .  S
C79          C80   1.375       .  A
C79          H91   1.082       .  S
C80          H92   1.082       .  S
C81         C498   1.517       .  S
C82         C402   1.505       .  S
C83         C482   1.514   1_564  S
C84         C389   1.513       .  S
N95         C100   1.346       .  A
N95          C99   1.350       .  A
N95         H127   1.043       .  S
N96         C103   1.345       .  A
N96         C104   1.343       .  A
N97         C102   1.348       .  A
N97         C101   1.346   1_556  A
N97         H128   1.042       .  S
N98         C105   1.345       .  A
N98         C106   1.349       .  A
C99         C107   1.386   1_556  A
C99         C115   1.406       .  A
C100        C116   1.405       .  A
C100        C108   1.388   1_556  A
C101        C109   1.388       .  A
C101        C118   1.405   1_454  A
C102        C117   1.405       .  A
C102        C110   1.386   1_556  A
C103        C115   1.405       .  A
C103        C111   1.387       .  A
C104        C118   1.402       .  A
C104        C112   1.386       .  A
C105        C113   1.386       .  A
C105        C116   1.405   1_455  A
C106        C114   1.386       .  A
C106        C117   1.409       .  A
C107        C108   1.376       .  A
C107        H119   1.082       .  S
C108        H120   1.082       .  S
C109        C110   1.377       .  A
C109        H121   1.082       .  S
C110        H122   1.082       .  S
C111        C112   1.374       .  A
C111        H123   1.082       .  S
C112        H124   1.082       .  S
C113        C114   1.377       .  A
C113        H125   1.082       .  S
C114        H126   1.082       .  S
C115        C354   1.481       .  S
C116        C453   1.470       .  S
C117        C370   1.485       .  S
C118        C469   1.466       .  S
N129        C134   1.352       .  A
N129        C133   1.346       .  A
N129        H161   1.042       .  S
N130        C137   1.345       .  A
N130        C138   1.347       .  A
N131        C136   1.348       .  A
N131        C135   1.353       .  A
N131        H162   1.039       .  S
N132        C139   1.349       .  A
N132        C140   1.346       .  A
C133        C141   1.388       .  A
C133        C149   1.408       .  A
C134        C150   1.409       .  A
C134        C142   1.386       .  A
C135        C143   1.386       .  A
C135        C152   1.413       .  A
C136        C151   1.411       .  A
C136        C144   1.388       .  A
C137        C149   1.405       .  A
C137        C145   1.387       .  A
C138        C152   1.408   1_455  A
C138        C146   1.386       .  A
C139        C147   1.385       .  A
C139        C150   1.409   1_655  A
C140        C148   1.386       .  A
C140        C151   1.406       .  A
C141        C142   1.375       .  A
C141        H153   1.082       .  S
C142        H154   1.082       .  S
C143        C144   1.375       .  A
C143        H155   1.082       .  S
C144        H156   1.082       .  S
C145        C146   1.377       .  A
C145        H157   1.082       .  S
C146        H158   1.082       .  S
C147        C148   1.376       .  A
C147        H159   1.082       .  S
C148        H160   1.082       .  S
C149        C322   1.470       .  S
C150        C418   1.491       .  S
C151        C338   1.473       .  S
C152        C437   1.486       .  S
O163       Ni169   1.920       .  S
O163        C184   1.271       .  A
O164       Ni187   1.892       .  S
O164        C173   1.263       .  A
O165       Ni169   1.904       .  S
O165       Ni187   1.893       .  S
O165       Ni181   1.923       .  S
O165        H188   0.970       .  S
C166        O183   1.281       .  A
C166        O175   1.275       .  A
C166        C309   1.455       .  S
O167       Ni186   1.910       .  S
O167        C173   1.268       .  A
O168       Ni186   1.915       .  S
O168        C170   1.266       .  A
Ni169       O172   1.930       .  S
Ni169       O174   1.927       .  S
C170        O180   1.282       .  A
C170        C274   1.530       .  S
O171       Ni187   1.908       .  S
O171        C177   1.274       .  A
O172        C177   1.280       .  A
C173        C325   1.450       .  S
O174        C176   1.271       .  A
O175       Ni186   1.903       .  S
C176        O182   1.276       .  A
C176        C258   1.518       .  S
C177        C290   1.480       .  S
H178        O179   0.966       .  S
O179       Ni187   1.910       .  S
O179       Ni181   1.888       .  S
O179       Ni186   1.892       .  S
O180       Ni181   1.969       .  S
Ni181       O185   1.901       .  S
Ni181       O183   1.924       .  S
O182       Ni187   1.956       .  S
C184        O185   1.268       .  A
C184        C341   1.466       .  S
N189        C194   1.349       .  A
N189        C193   1.350       .  A
N189        H221   1.040       .  S
N190        C197   1.346       .  A
N190        C198   1.348       .  A
N191        C196   1.348       .  A
N191        C195   1.347       .  A
N191        H222   1.041       .  S
N192        C199   1.346       .  A
N192        C200   1.346       .  A
C193        C201   1.387       .  A
C193        C209   1.412       .  A
C194        C210   1.411   1_554  A
C194        C202   1.387       .  A
C195        C203   1.388       .  A
C195        C212   1.408       .  A
C196        C211   1.404       .  A
C196        C204   1.386       .  A
C197        C209   1.408       .  A
C197        C205   1.387       .  A
C198        C212   1.407   1_554  A
C198        C206   1.385       .  A
C199        C207   1.388       .  A
C199        C210   1.408       .  A
C200        C208   1.385       .  A
C200        C211   1.403       .  A
C201        C202   1.381       .  A
C201        H213   1.082       .  S
C202        H214   1.082       .  S
C203        C204   1.373       .  A
C203        H215   1.082       .  S
C204        H216   1.082       .  S
C205        C206   1.377       .  A
C205        H217   1.082       .  S
C206        H218   1.082       .  S
C207        C208   1.373       .  A
C207        H219   1.082       .  S
C208        H220   1.082       .  S
C209        C293   1.481       .  S
C210        C373   1.480       .  S
C211        C306   1.471       .  S
C212        C357   1.484       .  S
N223        C228   1.357       .  A
N223        C227   1.363       .  A
N223        H255   1.040       .  S
N224        C231   1.357       .  A
N224        C232   1.353       .  A
N225        C230   1.360       .  A
N225        C229   1.355       .  A
N225        H256   1.041       .  S
N226        C233   1.355       .  A
N226        C234   1.360       .  A
C227        C235   1.384       .  A
C227        C243   1.427       .  A
C228        C244   1.432       .  A
C228        C236   1.390       .  A
C229        C237   1.389       .  A
C229        C246   1.423   1_545  A
C230        C245   1.423       .  A
C230        C238   1.386       .  A
C231        C243   1.418       .  A
C231        C239   1.384       .  A
C232        C246   1.422       .  A
C232        C240   1.389       .  A
C233        C241   1.389       .  A
C233        C244   1.428   1_545  A
C234        C242   1.384       .  A
C234        C245   1.424       .  A
C235        C236   1.383       .  A
C235        H247   1.082       .  S
C236        H248   1.082       .  S
C237        C238   1.383       .  A
C237        H249   1.082       .  S
C238        H250   1.082       .  S
C239        C240   1.374       .  A
C239        H251   1.082       .  S
C240        H252   1.082       .  S
C241        C242   1.382       .  A
C241        H253   1.082       .  S
C242        H254   1.082       .  S
C243        C277   1.518       .  S
C244        C386   1.513       .  S
C245        C261   1.523       .  S
C246        C405   1.506       .  S
C257        C258   1.410       .  A
C257        C262   1.420       .  A
C257        H264   1.083       .  S
C258        C259   1.427       .  A
C259        C260   1.422       .  A
C259        C266   1.519       .  S
C260        C261   1.408       .  A
C260        H265   1.083       .  S
C261        C262   1.421       .  A
C262        C263   1.517       .  S
C263        F267   1.384       .  S
C263        F268   1.383       .  S
C263        F269   1.379       .  S
C266        F270   1.384       .  S
C266        F271   1.379       .  S
C266        F272   1.384       .  S
C273        C274   1.413       .  A
C273        C278   1.421       .  A
C273        H280   1.084       .  S
C274        C275   1.437       .  A
C275        C276   1.419       .  A
C275        C282   1.523       .  S
C276        C277   1.402       .  A
C276        H281   1.083       .  S
C277        C278   1.423       .  A
C278        C279   1.518       .  S
C279        F283   1.384       .  S
C279        F284   1.383       .  S
C279        F285   1.381       .  S
C282        F286   1.383       .  S
C282        F287   1.384       .  S
C282        F288   1.385       .  S
C289        C290   1.406       .  A
C289        C294   1.406       .  A
C289        H296   1.083       .  S
C290        C291   1.422       .  A
C291        C292   1.402       .  A
C291        C298   1.521       .  S
C292        C293   1.398       .  A
C292        H297   1.083       .  S
C293        C294   1.415       .  A
C294        C295   1.519       .  S
C295        F299   1.385       .  S
C295        F300   1.381       .  S
C295        F301   1.383       .  S
C298        F302   1.383       .  S
C298        F303   1.383       .  S
C298        F304   1.385       .  S
C305        C306   1.402       .  A
C305        C310   1.402       .  A
C305        H312   1.083       .  S
C306        C307   1.414       .  A
C307        C308   1.399       .  A
C307        C314   1.522       .  S
C308        C309   1.399       .  A
C308        H313   1.084       .  S
C309        C310   1.410       .  A
C310        C311   1.517       .  S
C311        F315   1.384       .  S
C311        F316   1.384       .  S
C311        F317   1.383       .  S
C314        F318   1.383       .  S
C314        F319   1.381       .  S
C314        F320   1.384       .  S
C321        C322   1.399       .  A
C321        C326   1.397       .  A
C321        H328   1.084       .  S
C322        C323   1.415       .  A
C323        C324   1.400       .  A
C323        C330   1.518       .  S
C324        C325   1.397       .  A
C324        H329   1.084       .  S
C325        C326   1.413       .  A
C326        C327   1.520       .  S
C327        F331   1.385       .  S
C327        F332   1.383       .  S
C327        F333   1.381       .  S
C330        F334   1.383       .  S
C330        F335   1.385       .  S
C330        F336   1.382       .  S
C337        C338   1.397       .  A
C337        C342   1.398       .  A
C337        H344   1.084       .  S
C338        C339   1.413       .  A
C339        C340   1.406       .  A
C339        C346   1.517       .  S
C340        C341   1.403       .  A
C340        H345   1.083       .  S
C341        C342   1.417       .  A
C342        C343   1.520       .  S
C343        F347   1.385       .  S
C343        F348   1.384       .  S
C343        F349   1.382       .  S
C346        F350   1.383       .  S
C346        F351   1.382       .  S
C346        F352   1.384       .  S
C353        C354   1.403   1_554  A
C353        C358   1.398       .  A
C353        H360   1.085       .  S
C354        C355   1.413       .  A
C355        C356   1.401       .  A
C355        C362   1.521       .  S
C356        C357   1.407       .  A
C356        H361   1.083       .  S
C357        C358   1.419   1_556  A
C358        C359   1.521       .  S
C359        F363   1.384       .  S
C359        F364   1.381       .  S
C359        F365   1.382       .  S
C362        F366   1.384       .  S
C362        F367   1.379       .  S
C362        F368   1.385       .  S
C369        C370   1.404   1_554  A
C369        C374   1.404       .  A
C369        H376   1.083       .  S
C370        C371   1.418       .  A
C371        C372   1.402       .  A
C371        C378   1.521       .  S
C372        C373   1.401       .  A
C372        H377   1.083       .  S
C373        C374   1.414   1_556  A
C374        C375   1.519       .  S
C375        F379   1.384       .  S
C375        F380   1.384       .  S
C375        F381   1.381       .  S
C378        F382   1.383       .  S
C378        F383   1.379       .  S
C378        F384   1.385       .  S
C385        C386   1.407       .  A
C385        C390   1.411       .  A
C385        H392   1.084       .  S
C386        C387   1.422   1_565  A
C387        C388   1.413       .  A
C387        C394   1.521       .  S
C388        C389   1.409   1_545  A
C388        H393   1.083       .  S
C389        C390   1.423       .  A
C390        C391   1.519       .  S
C391        F395   1.384       .  S
C391        F396   1.382       .  S
C391        F397   1.381       .  S
C394        F398   1.377       .  S
C394        F399   1.383       .  S
C394        F400   1.385       .  S
C401        C402   1.406   1_545  A
C401        C406   1.412       .  A
C401        H408   1.083       .  S
C402        C403   1.419       .  A
C403        C404   1.409       .  A
C403        C410   1.520       .  S
C404        C405   1.407       .  A
C404        H409   1.083       .  S
C405        C406   1.421   1_565  A
C406        C407   1.520       .  S
C407        F411   1.384       .  S
C407        F412   1.379       .  S
C407        F413   1.384       .  S
C410        F414   1.379       .  S
C410        F415   1.384       .  S
C410        F416   1.385       .  S
C417        C418   1.407       .  A
C417        C422   1.405       .  A
C417        H424   1.084       .  S
C418        C419   1.417   1_455  A
C419        C420   1.399       .  A
C419        C426   1.519       .  S
C420        C421   1.404   1_655  A
C420        H425   1.085       .  S
C421        C422   1.419       .  A
C422        C423   1.519       .  S
C423        F427   1.384       .  S
C423        F428   1.382       .  S
C423        F429   1.382       .  S
C426        F430   1.384       .  S
C426        F431   1.382       .  S
C426        F432   1.382       .  S
C433        C434   1.404   1_455  A
C433        C438   1.404       .  A
C433        H440   1.083       .  S
C434        C435   1.421       .  A
C435        C436   1.403       .  A
C435        C442   1.520       .  S
C436        C437   1.401       .  A
C436        H441   1.085       .  S
C437        C438   1.415   1_655  A
C438        C439   1.518       .  S
C439        F443   1.384       .  S
C439        F444   1.383       .  S
C439        F445   1.381       .  S
C442        F446   1.381       .  S
C442        F447   1.383       .  S
C442        F448   1.384       .  S
C449        C450   1.403   1_655  A
C449        C454   1.401       .  A
C449        H456   1.083       .  S
C450        C451   1.420   1_556  A
C451        C452   1.398       .  A
C451        C458   1.523       .  S
C452        C453   1.397   1_454  A
C452        H457   1.084       .  S
C453        C454   1.411       .  A
C454        C455   1.517       .  S
C455        F459   1.384       .  S
C455        F460   1.382       .  S
C455        F461   1.383       .  S
C458        F462   1.384   1_455  S
C458        F463   1.382       .  S
C458        F464   1.385       .  S
C465        C466   1.399   1_456  A
C465        C470   1.396       .  A
C465        H472   1.084       .  S
C466        C467   1.410       .  A
C467        C468   1.401       .  A
C467        C474   1.516       .  S
C468        C469   1.402   1_554  A
C468        H473   1.083       .  S
C469        C470   1.411   1_655  A
C470        C471   1.519       .  S
C471        F475   1.381       .  S
C471        F476   1.382       .  S
C471        F477   1.384       .  S
C474        F478   1.383       .  S
C474        F479   1.383       .  S
C474        F480   1.385       .  S
C481        C482   1.406   1_564  A
C481        C486   1.424       .  A
C481        H488   1.082       .  S
C482        C483   1.414       .  A
C483        C484   1.415       .  A
C483        C490   1.520       .  S
C484        C485   1.418       .  A
C484        H489   1.081       .  S
C485        C486   1.432   1_546  A
C486        C487   1.518       .  S
C487        F491   1.384       .  S
C487        F492   1.383       .  S
C487        F493   1.383   1_554  S
C490        F494   1.383       .  S
C490        F495   1.384       .  S
C490        F496   1.383   1_556  S
C497        C498   1.408       .  A
C497        C502   1.423       .  A
C497        H504   1.083       .  S
C498        C499   1.417   1_545  A
C499        C500   1.415       .  A
C499        C506   1.520   1_554  S
C500        C501   1.413   1_565  A
C500        H505   1.082       .  S
C501        C502   1.426       .  A
C502        C503   1.518       .  S
C503        F507   1.384       .  S
C503        F508   1.383       .  S
C503        F509   1.383       .  S
C506        F510   1.382   1_556  S
C506        F511   1.382       .  S
C506        F512   1.385       .  S
C513        C514   1.399   1_445  A
C513        C518   1.400       .  A
C513        H520   1.083       .  S
C514        C515   1.415       .  A
C515        C516   1.406       .  A
C515        C522   1.517       .  S
C516        C517   1.399       .  A
C516        H521   1.083       .  S
C517        C518   1.415   1_665  A
C518        C519   1.520       .  S
C519        F523   1.385       .  S
C519        F524   1.383   1_545  S
C519        F525   1.382       .  S
C522        F526   1.383       .  S
C522        F527   1.382       .  S
C522        F528   1.385       .  S
C529        C530   1.402   1_655  A
C529        C534   1.403       .  A
C529        H536   1.083       .  S
C530        C531   1.414       .  A
C531        C532   1.402       .  A
C531        C538   1.517   1_545  S
C532        C533   1.401       .  A
C532        H537   1.084   1_545  S
C533        C534   1.415   1_455  A
C534        C535   1.519       .  S
C535        F539   1.385       .  S
C535        F540   1.381       .  S
C535        F541   1.383       .  S
C538        F542   1.383   1_565  S
C538        F543   1.382       .  S
C538        F544   1.385       .  S
