geometry optimzed in LAMMPS
_audit_creation_date              2020-11-30 
_audit_creation_method            'lammps2cif' 
_symmetry_space_group_name_H-M    'P1' 
_symmetry_Int_Tables_number       1 
_symmetry_cell_setting            triclinic 
loop_ 
_symmetry_equiv_pos_as_xyz 
  x,y,z 
_cell_length_a                    26.496939370982922 
_cell_length_b                    26.606863164765837 
_cell_length_c                    46.19468869204316 
_cell_angle_alpha                 78.5488302485495 
_cell_angle_beta                  94.47159450736456 
_cell_angle_gamma                 109.79160678928855 
loop_ 
_atom_site_label 
_atom_site_type_symbol 
_atom_site_fract_x 
_atom_site_fract_y 
_atom_site_fract_z 
_atom_site_charge 
O1          O  0.86203814  0.96066627  0.47961261    -0.79860
O2          O  0.10700156  0.98684045  0.48771031    -0.64550
O3          O  0.96103751  0.95684991  0.00687417    -1.11150
C4          C  0.01507603  0.14621775  0.00477538     1.07030
O5          O  0.14038103  0.04296294  0.01928670    -0.77760
O6          O  0.06779423  0.05263493  0.05365051    -0.65340
Ni7        Ni  0.90410374  0.91250246  0.48527478     1.34870
C8          C  0.01976203  0.03282419  0.06257525     0.85760
O9          O  0.02518614  0.89511143  0.50009840    -0.78300
O10         O  0.93792071  0.85773382  0.48952966    -0.88570
C11         C  0.14605945  0.01280152  0.00245406     0.85340
O12         O  0.93293164  0.94450632  0.44674185    -0.66770
O13         O  0.06062172  0.14194332  0.01336479    -0.86060
C14         C  0.98066823  0.96783917  0.43757861     0.86170
C15         C  0.98462847  0.85467437  0.49573584     1.07740
H16         H  0.04542849  0.06294128  0.47299577     0.39540
O17         O  0.04032324  0.04507228  0.49342924    -1.08720
O18         O  0.97945285  0.02664289  0.04509047    -0.65370
Ni19       Ni  0.96756580  0.03157642  0.00303910     1.26350
O20         O  0.02121190  0.97734468  0.45481522    -0.65600
O21         O  0.97579081  0.10667092  0.99828535    -0.77890
C22         C  0.85554919  0.99005049  0.49666075     0.85550
O23         O  0.89417594  0.01540357  0.01180802    -0.65070
Ni24       Ni  0.09631676  0.08886857  0.01561987     1.27450
Ni25       Ni  0.03364183  0.97036387  0.49672642     1.26060
H26         H  0.95651258  0.93963383  0.02742760     0.40090
O27         O  0.85683213  0.95022119  0.23408293    -0.79860
O28         O  0.10568708  0.98144422  0.24033635    -0.64550
O29         O  0.95950064  0.95421887  0.25739242    -1.11150
C30         C  0.01539850  0.14530084  0.25221543     1.07030
O31         O  0.13904933  0.04023207  0.27034132    -0.77760
O32         O  0.06630021  0.05361126  0.30289948    -0.65340
Ni33       Ni  0.90562984  0.91040054  0.23405786     1.34870
C34         C  0.01813734  0.03309176  0.31159602     0.85760
O35         O  0.02348392  0.89120451  0.25552693    -0.78300
O36         O  0.94512723  0.86176070  0.23220652    -0.88570
C37         C  0.14486387  0.00877779  0.25441188     0.85340
O38         O  0.93393648  0.95481488  0.19751395    -0.66770
O39         O  0.06083319  0.14090021  0.26078102    -0.86060
C40         C  0.98181585  0.96952565  0.18870483     0.86170
C41         C  0.98741212  0.85453605  0.24461002     1.07740
H42         H  0.04521303  0.05786562  0.22225099     0.39540
O43         O  0.03969505  0.04177044  0.24290725    -1.08720
O44         O  0.97808022  0.02586026  0.29394547    -0.65370
Ni45       Ni  0.96697540  0.02972949  0.25194537     1.26350
O46         O  0.02101147  0.96876834  0.20646124    -0.65600
O47         O  0.97598534  0.10542888  0.24611768    -0.77890
C48         C  0.85342462  0.98583293  0.24787482     0.85550
O49         O  0.89384447  0.01565866  0.26007356    -0.65070
Ni50       Ni  0.09564702  0.08695513  0.26472255     1.27450
Ni51       Ni  0.03241228  0.96663406  0.24863056     1.26060
H52         H  0.95313956  0.93723965  0.27794087     0.40090
O53         O  0.85813126  0.45578610  0.48058901    -0.79860
O54         O  0.10617146  0.48797284  0.48646490    -0.64550
O55         O  0.95990304  0.45673052  0.00555113    -1.11150
C56         C  0.01384352  0.64645026  0.00354181     1.07030
O57         O  0.13834396  0.54203791  0.01897927    -0.77760
O58         O  0.06606724  0.55535641  0.05249980    -0.65340
Ni59       Ni  0.90396727  0.41180402  0.48366446     1.34870
C60         C  0.01813574  0.53370886  0.06160078     0.85760
O61         O  0.02554459  0.39613707  0.50013055    -0.78300
O62         O  0.94073985  0.35989139  0.48548646    -0.88570
C63         C  0.14480444  0.51269674  0.00185351     0.85340
O64         O  0.93146158  0.44833544  0.44536993    -0.66770
O65         O  0.06027334  0.64319294  0.01066433    -0.86060
C66         C  0.97931029  0.46945986  0.43611246     0.86170
C67         C  0.98656390  0.35625074  0.49379479     1.07740
H68         H  0.04361612  0.56301323  0.47156965     0.39540
O69         O  0.03876974  0.54539006  0.49205246    -1.08720
O70         O  0.97792306  0.52545421  0.04403253    -0.65370
Ni71       Ni  0.96600664  0.53146365  0.00194863     1.26350
O72         O  0.01998623  0.47645506  0.45342678    -0.65600
O73         O  0.97391071  0.60645679  0.99810142    -0.77890
C74         C  0.85331628  0.48787331  0.49644743     0.85550
O75         O  0.89254464  0.51524804  0.01052678    -0.65070
Ni76       Ni  0.09511680  0.58922878  0.01414212     1.27450
Ni77       Ni  0.03275303  0.47098934  0.49555766     1.26060
H78         H  0.95526075  0.43924059  0.02605900     0.40090
O79         O  0.85461009  0.44718085  0.23613907    -0.79860
O80         O  0.10553594  0.48104794  0.24002747    -0.64550
O81         O  0.95951406  0.45633986  0.25704861    -1.11150
C82         C  0.01378092  0.64514968  0.25173673     1.07030
O83         O  0.14225246  0.54676862  0.26585940    -0.77760
O84         O  0.06503895  0.54635767  0.30125521    -0.65340
Ni85       Ni  0.90546111  0.41033311  0.23465149     1.34870
C86         C  0.01698401  0.53245336  0.30968778     0.85760
O87         O  0.02300966  0.39201512  0.25606445    -0.78300
O88         O  0.94604478  0.36326992  0.23180490    -0.88570
C89         C  0.14598793  0.51128339  0.25208032     0.85340
O90         O  0.93245515  0.45565621  0.19791321    -0.66770
O91         O  0.05570347  0.63790247  0.26458578    -0.86060
C92         C  0.98008269  0.46975881  0.18859780     0.86170
C93         C  0.98761453  0.35544869  0.24476178     1.07740
H94         H  0.04734483  0.55894483  0.22077897     0.39540
O95         O  0.04044130  0.54317077  0.24140402    -1.08720
O96         O  0.97793625  0.53220785  0.29158095    -0.65370
Ni97       Ni  0.96767814  0.53243193  0.24932971     1.26350
O98         O  0.01957748  0.46830140  0.20611810    -0.65600
O99         O  0.97790317  0.60827952  0.24085971    -0.77890
C100        C  0.85310841  0.48708476  0.24687113     0.85550
O101        O  0.89443513  0.52100685  0.25601471    -0.65070
Ni102      Ni  0.09431244  0.58799465  0.26431518     1.27450
Ni103      Ni  0.03231882  0.46765419  0.24823615     1.26060
H104        H  0.95339369  0.44117637  0.27777504     0.40090
O105        O  0.36050512  0.95830644  0.48007491    -0.79860
O106        O  0.60683765  0.98513604  0.48851772    -0.64550
O107        O  0.46048373  0.95624616  0.00618015    -1.11150
C108        C  0.51622143  0.14664917  0.00324955     1.07030
O109        O  0.63922532  0.04112986  0.02008243    -0.77760
O110        O  0.56779817  0.05728569  0.05260119    -0.65340
Ni111      Ni  0.40488684  0.91275617  0.48365724     1.34870
C112        C  0.51994447  0.03414895  0.06161125     0.85760
O113        O  0.52482350  0.89416007  0.50188653    -0.78300
O114        O  0.44073335  0.85995702  0.48567951    -0.88570
C115        C  0.64557451  0.01109758  0.00338643     0.85340
O116        O  0.43416151  0.95010030  0.44597807    -0.66770
O117        O  0.56294425  0.14377862  0.00962251    -0.86060
C118        C  0.48235295  0.96957852  0.43731168     0.86170
C119        C  0.48582475  0.85504453  0.49471647     1.07740
H120        H  0.54481891  0.06118151  0.47211198     0.39540
O121        O  0.54010279  0.04423925  0.49270016    -1.08720
O122        O  0.47952081  0.02463395  0.04432024    -0.65370
Ni123      Ni  0.46738206  0.03105276  0.00248848     1.26350
O124        O  0.52225134  0.97427502  0.45497698    -0.65600
O125        O  0.47584300  0.10622311  0.99877467    -0.77890
C126        C  0.35498944  0.98902194  0.49660095     0.85550
O127        O  0.39404294  0.01505084  0.01130378    -0.65070
Ni128      Ni  0.59691297  0.08908353  0.01414439     1.27450
Ni129      Ni  0.53338266  0.96936981  0.49697313     1.26060
H130        H  0.45492670  0.93848693  0.02661421     0.40090
O131        O  0.36246697  0.96164997  0.22926267    -0.79860
O132        O  0.60696752  0.98811611  0.23762609    -0.64550
O133        O  0.46118025  0.95799793  0.25627986    -1.11150
C134        C  0.51582326  0.14808007  0.25338394     1.07030
O135        O  0.63946920  0.04328780  0.26955641    -0.77760
O136        O  0.56861296  0.05935747  0.30242789    -0.65340
Ni137      Ni  0.40479548  0.91382510  0.23447320     1.34870
C138        C  0.52087848  0.03647820  0.31164476     0.85760
O139        O  0.52552420  0.89634096  0.25093102    -0.78300
O140        O  0.43937938  0.85966086  0.23831749    -0.88570
C141        C  0.64570605  0.01340610  0.25273240     0.85340
O142        O  0.43369580  0.94684411  0.19614022    -0.66770
O143        O  0.56278291  0.14558384  0.25941008    -0.86060
C144        C  0.48166243  0.96892611  0.18725010     0.86170
C145        C  0.48555553  0.85601198  0.24580003     1.07740
H146        H  0.54438076  0.06349472  0.22206229     0.39540
O147        O  0.54005663  0.04631689  0.24262422    -1.08720
O148        O  0.48023977  0.02656540  0.29452292    -0.65370
Ni149      Ni  0.46746992  0.03253331  0.25277167     1.26350
O150        O  0.52194288  0.97732599  0.20466046    -0.65600
O151        O  0.47533805  0.10752403  0.24921214    -0.77890
C152        C  0.35561542  0.99013824  0.24673939     0.85550
O153        O  0.39420316  0.01547182  0.26195764    -0.65070
Ni154      Ni  0.59709565  0.09116444  0.26383580     1.27450
Ni155      Ni  0.53374809  0.97162638  0.24653635     1.26060
H156        H  0.45634788  0.94042002  0.27676968     0.40090
O157        O  0.36021147  0.45738433  0.47959902    -0.79860
O158        O  0.60639560  0.48405478  0.48857138    -0.64550
O159        O  0.46007327  0.45495451  0.00645022    -1.11150
C160        C  0.51334189  0.64443714  0.00411789     1.07030
O161        O  0.64074438  0.54362708  0.01839903    -0.77760
O162        O  0.56701446  0.55226058  0.05283218    -0.65340
Ni163      Ni  0.40383353  0.41058216  0.48453123     1.34870
C164        C  0.51896262  0.53123362  0.06176338     0.85760
O165        O  0.52494503  0.39344331  0.50125008    -0.78300
O166        O  0.43893190  0.35679644  0.48806908    -0.88570
C167        C  0.64558704  0.51137629  0.00267208     0.85340
O168        O  0.43309121  0.44470533  0.44630597    -0.66770
O169        O  0.55902446  0.64042276  0.01236325    -0.86060
C170        C  0.48118585  0.46613627  0.43746069     0.86170
C171        C  0.48526367  0.35358434  0.49550795     1.07740
H172        H  0.54436919  0.56043696  0.47229011     0.39540
O173        O  0.53939269  0.54323675  0.49283131    -1.08720
O174        O  0.47847518  0.52427088  0.04440765    -0.65370
Ni175      Ni  0.46644019  0.52960856  0.00240748     1.26350
O176        O  0.52136637  0.47381221  0.45501137    -0.65600
O177        O  0.47421364  0.60469582  0.99770488    -0.77890
C178        C  0.35412909  0.48776505  0.49620203     0.85550
O179        O  0.39299030  0.51329541  0.01118326    -0.65310
Ni180      Ni  0.59534849  0.58816096  0.01468996     1.27450
Ni181      Ni  0.53296889  0.46838974  0.49696729     1.26060
H182        H  0.45499807  0.43765587  0.02697155     0.40090
O183        O  0.36330417  0.46024182  0.22884650    -0.79860
O184        O  0.60813076  0.48637181  0.23811593    -0.64550
O185        O  0.46228771  0.45745602  0.25650884    -1.11150
C186        C  0.51416270  0.64610479  0.25466946     1.07030
O187        O  0.64384426  0.54804832  0.26681805    -0.77760
O188        O  0.56880362  0.55128800  0.30263253    -0.65340
Ni189      Ni  0.40540143  0.41203387  0.23536841     1.34870
C190        C  0.52069835  0.53220966  0.31157267     0.85760
O191        O  0.52676923  0.39579987  0.25057788    -0.78300
O192        O  0.43937728  0.35729045  0.24058859    -0.88570
C193        C  0.64762801  0.51440178  0.25171743     0.85340
O194        O  0.43439732  0.44253312  0.19674256    -0.66770
O195        O  0.55907481  0.64136921  0.26418468    -0.86060
C196        C  0.48210577  0.46635382  0.18759177     0.86170
C197        C  0.48638499  0.35502562  0.24665129     1.07740
H198        H  0.54657902  0.56335412  0.22214566     0.39540
O199        O  0.54138129  0.54589048  0.24263761    -1.08720
O200        O  0.48044506  0.52782400  0.29411181    -0.65370
Ni201      Ni  0.46836963  0.53205958  0.25210377     1.26350
O202        O  0.52263370  0.47695654  0.20479293    -0.65600
O203        O  0.47584761  0.60712836  0.24687645    -0.77890
C204        C  0.35629592  0.48949116  0.24581544     0.85550
O205        O  0.39487977  0.51528265  0.26086496    -0.65070
Ni206      Ni  0.59677369  0.59052366  0.26487482     1.27450
Ni207      Ni  0.53489138  0.47089088  0.24667039     1.26060
H208        H  0.45778154  0.44070373  0.27712957     0.40090
C209        C  0.53970192  0.52279300  0.39453644     0.24630
C210        C  0.49121719  0.48293613  0.40522538    -0.23480
C211        C  0.45268470  0.45921762  0.38475559     0.19530
C212        C  0.46234735  0.47500888  0.35441304     0.24570
C213        C  0.51081790  0.51483190  0.34376557    -0.23430
C214        C  0.54937800  0.53847310  0.36420796     0.19470
F215        F  0.59602460  0.57806631  0.35488221    -0.13380
F216        F  0.57748966  0.54780168  0.41336490    -0.15750
F217        F  0.42455597  0.45028867  0.33549949    -0.15750
F218        F  0.40595346  0.41972306  0.39403490    -0.13380
C219        C  0.54404088  0.54424610  0.11379116     0.24630
C220        C  0.50950461  0.51442195  0.09390844    -0.23480
C221        C  0.46562494  0.46874940  0.10502786     0.19530
C222        C  0.45662576  0.45307976  0.13544254     0.24570
C223        C  0.49126300  0.48285496  0.15535985    -0.23430
C224        C  0.53500008  0.52870627  0.14416929     0.19470
F225        F  0.56830692  0.55957060  0.16256054    -0.13380
F226        F  0.58572141  0.58957360  0.10377749    -0.15750
F227        F  0.41481743  0.40785917  0.14541356    -0.15750
F228        F  0.43219015  0.43828772  0.08651385    -0.13380
C229        C  0.54455456  0.79790422  0.24925694     0.24630
C230        C  0.49284905  0.80213943  0.24847509    -0.23480
C231        C  0.44811402  0.75418112  0.25000636     0.19530
C232        C  0.45495858  0.70372736  0.25196704     0.24570
C233        C  0.50665392  0.69962680  0.25263943    -0.23430
C234        C  0.55135690  0.74747040  0.25123327     0.19470
F235        F  0.60203475  0.74593258  0.25100794    -0.13380
F236        F  0.58897792  0.84266609  0.24760675    -0.15750
F237        F  0.41067820  0.65878400  0.25367780    -0.15750
F238        F  0.39738916  0.75562676  0.25011026    -0.13380
C239        C  0.54409601  0.24842253  0.23548996     0.24630
C240        C  0.50809185  0.20093447  0.25148235    -0.23480
C241        C  0.46535202  0.20451000  0.26623485     0.19530
C242        C  0.45846271  0.25478608  0.26483245     0.24570
C243        C  0.49439509  0.30225257  0.24879271    -0.23430
C244        C  0.53731228  0.29873255  0.23415929     0.19470
F245        F  0.57155339  0.34376240  0.21773643    -0.13380
F246        F  0.58492056  0.24581900  0.22045927    -0.15750
F247        F  0.41760861  0.25738442  0.27983996    -0.15750
F248        F  0.43143063  0.15958182  0.28286726    -0.13380
C249        C  0.54441267  0.74007038  0.01403480     0.24630
C250        C  0.50588916  0.69809998  0.00189400    -0.23480
C251        C  0.46068250  0.70840236  0.48735026     0.19530
C252        C  0.45430940  0.75916042  0.48490363     0.24570
C253        C  0.49290596  0.80116887  0.49700526    -0.23430
C254        C  0.53803629  0.79077154  0.01160799     0.19470
F255        F  0.57610804  0.82935373  0.02404774    -0.13380
F256        F  0.58832355  0.73219322  0.02873935    -0.15750
F257        F  0.41035112  0.76703569  0.47026470    -0.15750
F258        F  0.42263366  0.66969854  0.47497710    -0.13380
C259        C  0.54800166  0.24811587  0.48856089     0.24630
C260        C  0.50852835  0.19972218  0.00121439    -0.23480
C261        C  0.46183391  0.20250406  0.01232299     0.19530
C262        C  0.45399525  0.25247250  0.01019789     0.24570
C263        C  0.49331071  0.30078673  0.49746166    -0.23430
C264        C  0.54040591  0.29821502  0.48667247     0.19470
F265        F  0.57820430  0.34404992  0.47331274    -0.13380
F266        F  0.59335035  0.24682585  0.47737376    -0.15750
F267        F  0.40875105  0.25378486  0.02150119    -0.15750
F268        F  0.42492659  0.15705383  0.02654543    -0.13380
C269        C  0.46298940  0.01730269  0.35553164     0.24630
C270        C  0.51169761  0.02043666  0.34384217    -0.23480
C271        C  0.55097913  0.00734311  0.36317595     0.19530
C272        C  0.54156509  0.99097432  0.39350425     0.24570
C273        C  0.49264175  0.98743369  0.40519806    -0.23430
C274        C  0.45358770  0.00105770  0.38582644     0.19470
F275        F  0.40649530  0.99977284  0.39617772    -0.13380
F276        F  0.42464958  0.03107796  0.33771891    -0.15750
F277        F  0.57995299  0.97720079  0.41126029    -0.15750
F278        F  0.59798882  0.00871209  0.35268054    -0.13380
C279        C  0.54624950  0.04542574  0.11388106     0.24630
C280        C  0.51042874  0.01735154  0.09377169    -0.23480
C281        C  0.46503856  0.97317032  0.10469681     0.19530
C282        C  0.45562648  0.95754194  0.13502469     0.24570
C283        C  0.49140513  0.98564971  0.15512295    -0.23430
C284        C  0.53685185  0.02974818  0.14422124     0.19470
F285        F  0.57160011  0.05877016  0.16286170    -0.13380
F286        F  0.58969829  0.08910177  0.10418801    -0.15750
F287        F  0.41218340  0.91386396  0.14472887    -0.15750
F288        F  0.43029291  0.94404141  0.08609491    -0.13380
C289        C  0.79360571  0.54414767  0.23601282     0.24630
C290        C  0.80072841  0.49429404  0.24846949    -0.23480
C291        C  0.75713205  0.45100379  0.26196780     0.19530
C292        C  0.70704826  0.45746187  0.26297084     0.24570
C293        C  0.69999416  0.50725771  0.25046610    -0.23430
C294        C  0.74350452  0.55054943  0.23700472     0.19470
F295        F  0.73697849  0.59852041  0.22415571    -0.13380
F296        F  0.83470117  0.58598761  0.22205917    -0.15750
F297        F  0.66578504  0.41563674  0.27678364    -0.15750
F298        F  0.76353014  0.40299259  0.27485215    -0.13380
C299        C  0.24454704  0.53653635  0.26507574     0.24630
C300        C  0.19960066  0.50514139  0.25051277    -0.23480
C301        C  0.20691701  0.46845163  0.23433648     0.19530
C302        C  0.25751485  0.46339384  0.23277279     0.24570
C303        C  0.30240125  0.49494727  0.24728577    -0.23430
C304        C  0.29494206  0.53129663  0.26361147     0.19470
F305        F  0.33636832  0.56205626  0.27845002    -0.13380
F306        F  0.24022767  0.57267607  0.28096385    -0.15750
F307        F  0.26210625  0.42698879  0.21716486    -0.15750
F308        F  0.16526777  0.43741852  0.21973383    -0.13380
C309        C  0.79581439  0.54520584  0.49778264     0.24630
C310        C  0.80021899  0.49395748  0.49799286    -0.23480
C311        C  0.75331793  0.44834156  0.99973386     0.19530
C312        C  0.70300318  0.45387271  0.00140278     0.24570
C313        C  0.69864368  0.50512199  0.50125425    -0.23430
C314        C  0.74553060  0.55072728  0.49950880     0.19470
F315        F  0.74253597  0.60099876  0.49850966    -0.13380
F316        F  0.84002907  0.59029893  0.49472695    -0.15750
F317        F  0.65871845  0.40881863  0.00423371    -0.15750
F318        F  0.75633001  0.39808890  0.00069710    -0.13380
C319        C  0.24415688  0.53984388  0.01331938     0.24630
C320        C  0.19833376  0.50612442  0.50052831    -0.23480
C321        C  0.20447392  0.46647801  0.48617089     0.19530
C322        C  0.25479217  0.46077427  0.48464637     0.24570
C323        C  0.30064572  0.49448823  0.49744793    -0.23430
C324        C  0.29448693  0.53416059  0.01178892     0.19470
F325        F  0.33727306  0.56820649  0.02420453    -0.13380
F326        F  0.24077102  0.57915278  0.02709695    -0.15750
F327        F  0.25813753  0.42146266  0.47085778    -0.15750
F328        F  0.16166120  0.43240283  0.47378968    -0.13380
C329        C  0.94912318  0.46240951  0.38343325     0.24630
C330        C  0.98826470  0.48632798  0.40367051    -0.23480
C331        C  0.03638891  0.52618301  0.39252878     0.19530
C332        C  0.04538811  0.54121218  0.36208641     0.24570
C333        C  0.00649363  0.51698429  0.34191916    -0.23430
C334        C  0.95809349  0.47770471  0.35293429     0.19470
F335        F  0.92004728  0.45267473  0.33423693    -0.13380
F336        F  0.90264358  0.42291843  0.39310776    -0.15750
F337        F  0.09189691  0.58058708  0.35232527    -0.15750
F338        F  0.07459428  0.55159187  0.41104256    -0.13380
C339        C  0.05165968  0.52254472  0.11453185     0.24630
C340        C  0.00848389  0.51761143  0.09413524    -0.23480
C341        C  0.95587135  0.49739933  0.10529765     0.19530
C342        C  0.94675874  0.48243957  0.13574014     0.24570
C343        C  0.98991064  0.48710792  0.15612475    -0.23430
C344        C  0.04252947  0.50759048  0.14499032     0.19470
F345        F  0.08571416  0.51346215  0.16349912    -0.13380
F346        F  0.10319122  0.54165372  0.10519090    -0.15750
F347        F  0.89520043  0.46280304  0.14506154    -0.15750
F348        F  0.91263362  0.49196577  0.08684689    -0.13380
C349        C  0.01962119  0.77905426  0.27101158     0.24630
C350        C  0.99471391  0.80130275  0.24617755    -0.23480
C351        C  0.97578778  0.77162819  0.22321089     0.19530
C352        C  0.98162617  0.72071386  0.22506529     0.24570
C353        C  0.00658725  0.69850872  0.24990000    -0.23430
C354        C  0.02544655  0.72818615  0.27286940     0.19470
F355        F  0.04815106  0.70723319  0.29759771    -0.13380
F356        F  0.03677579  0.80573612  0.29400291    -0.15750
F357        F  0.96430566  0.69389063  0.20214115    -0.15750
F358        F  0.95290751  0.79256391  0.19855476    -0.13380
C359        C  0.95039421  0.25526168  0.24405180     0.24630
C360        C  0.99494941  0.30198472  0.24621055    -0.23480
C361        C  0.04630410  0.29684085  0.24992807     0.19530
C362        C  0.05298657  0.24639697  0.25147411     0.24570
C363        C  0.00835348  0.19938536  0.24959562    -0.23430
C364        C  0.95695487  0.20472593  0.24573893     0.19470
F365        F  0.91250540  0.16092634  0.24410756    -0.13380
F366        F  0.89992666  0.25794871  0.24112014    -0.15750
F367        F  0.10357363  0.24406117  0.25455683    -0.15750
F368        F  0.09050683  0.34083942  0.25164005    -0.13380
C369        C  0.75472076  0.96087612  0.23551517     0.24630
C370        C  0.80031559  0.99297929  0.24927650    -0.23480
C371        C  0.79438897  0.03209796  0.26414142     0.19530
C372        C  0.74444670  0.03871517  0.26527263     0.24570
C373        C  0.69891570  0.00648757  0.25155380    -0.23430
C374        C  0.70500344  0.96784712  0.23643648     0.19470
F375        F  0.66289582  0.93652293  0.22226892    -0.13380
F376        F  0.75776611  0.92242028  0.22094597    -0.15750
F377        F  0.74117910  0.07746819  0.27953656    -0.15750
F378        F  0.83684669  0.06432233  0.27769941    -0.13380
C379        C  0.29496692  0.03427658  0.26299241     0.24630
C380        C  0.30172480  0.99501620  0.24862155    -0.23480
C381        C  0.25613451  0.95982950  0.23645503     0.19530
C382        C  0.20533286  0.96386359  0.23855318     0.24570
C383        C  0.19861002  0.00330202  0.25283339    -0.23430
C384        C  0.24423376  0.03840123  0.26505048     0.19470
F385        F  0.24028094  0.07756377  0.27876122    -0.13380
F386        F  0.33753545  0.06948717  0.27485809    -0.15750
F387        F  0.16274811  0.92860967  0.22668829    -0.15750
F388        F  0.26025204  0.92069567  0.22277936    -0.13380
C389        C  0.95115592  0.75284293  0.00920491     0.24630
C390        C  0.99190935  0.80127640  0.49778530    -0.23480
C391        C  0.03942831  0.79813215  0.48792398     0.19530
C392        C  0.04674673  0.74791226  0.49002599     0.24570
C393        C  0.00615630  0.69955435  0.00153955    -0.23430
C394        C  0.95830611  0.70250271  0.01113985     0.19470
F395        F  0.91925421  0.65677127  0.02347986    -0.13380
F396        F  0.90486348  0.75424588  0.01917288    -0.15750
F397        F  0.09293172  0.74650534  0.47991307    -0.15750
F398        F  0.07784284  0.84354755  0.47491132    -0.13380
C399        C  0.04157517  0.23943023  0.01763909     0.24630
C400        C  0.00772318  0.19991644  0.00208749    -0.23480
C401        C  0.96718797  0.21260826  0.48361151     0.19530
C402        C  0.96067074  0.26335829  0.48074989     0.24570
C403        C  0.99444894  0.30284387  0.49632529    -0.23430
C404        C  0.03505305  0.29022079  0.01477134     0.19470
F405        F  0.06782753  0.32648218  0.03073912    -0.13380
F406        F  0.08041147  0.22866279  0.03625405    -0.15750
F407        F  0.92177809  0.27406763  0.46215953    -0.15750
F408        F  0.93432407  0.17637449  0.46765901    -0.13380
C409        C  0.75542977  0.95722024  0.98892422     0.24630
C410        C  0.80192969  0.99577292  0.49818562    -0.23480
C411        C  0.79635207  0.03921360  0.50931221     0.19530
C412        C  0.74573207  0.04393160  0.51115358     0.24570
C413        C  0.69924238  0.00536768  0.50190965    -0.23430
C414        C  0.70481841  0.96194631  0.99075364     0.19470
F415        F  0.66123063  0.92324298  0.98201403    -0.13380
F416        F  0.75857569  0.91401554  0.97860831    -0.15750
F417        F  0.74260847  0.08717365  0.52143910    -0.15750
F418        F  0.83998940  0.07800584  0.51794294    -0.13380
C419        C  0.25491653  0.95690570  0.98895878     0.24630
C420        C  0.30162664  0.99536115  0.49799116    -0.23480
C421        C  0.29651481  0.03966192  0.50839335     0.19530
C422        C  0.24626667  0.04539548  0.50978781     0.24570
C423        C  0.19953762  0.00682802  0.00083808    -0.23430
C424        C  0.20471818  0.96273012  0.99027544     0.19470
F425        F  0.16107103  0.92441110  0.98159776    -0.13380
F426        F  0.25738093  0.91273963  0.97937261    -0.15750
F427        F  0.24374755  0.08957028  0.51933957    -0.15750
F428        F  0.34025762  0.07826137  0.51680122    -0.13380
C429        C  0.95311229  0.95768705  0.38516710     0.24630
C430        C  0.98981380  0.98484807  0.40530613    -0.23480
C431        C  0.03566033  0.02835792  0.39427466     0.19530
C432        C  0.04472026  0.04408038  0.36389149     0.24570
C433        C  0.00813363  0.01679940  0.34377716    -0.23430
C434        C  0.96214520  0.97351263  0.35476007     0.19470
F435        F  0.92658261  0.94526168  0.33613335    -0.13380
F436        F  0.90913059  0.91466581  0.39487792    -0.15750
F437        F  0.08879751  0.08697762  0.35415797    -0.15750
F438        F  0.07133223  0.05669361  0.41283435    -0.13380
C439        C  0.96353086  0.01824112  0.10671210     0.24630
C440        C  0.01020945  0.01674359  0.09482338    -0.23480
C441        C  0.04789835  0.00037355  0.11411319     0.19530
C442        C  0.03898739  0.98555234  0.14455324     0.24570
C443        C  0.99216736  0.98685769  0.15648464    -0.23430
C444        C  0.95466400  0.00362038  0.13714090     0.19470
F445        F  0.90960431  0.00686418  0.14762875    -0.13380
F446        F  0.92686408  0.03519596  0.08897130    -0.15750
F447        F  0.07571293  0.96851323  0.16218654    -0.15750
F448        F  0.09287498  0.99720957  0.10347762    -0.13380
O449        O  0.86200815  0.96064248  0.97961507    -0.79860
O450        O  0.10697799  0.98683398  0.98770780    -0.64550
O451        O  0.96106215  0.95686649  0.50687470    -1.11150
C452        C  0.01511035  0.14623499  0.50477456     1.07030
O453        O  0.14040758  0.04297086  0.51928864    -0.77760
O454        O  0.06782066  0.05264667  0.55365175    -0.65340
Ni455      Ni  0.90408106  0.91248515  0.98527338     1.34870
C456        C  0.01978772  0.03284031  0.56257553     0.85760
O457        O  0.02516761  0.89510137  0.00009775    -0.78300
O458        O  0.93790437  0.85772151  0.98952508    -0.88570
C459        C  0.14608342  0.01280637  0.50245701     0.85340
O460        O  0.93290694  0.94449641  0.94674035    -0.66770
O461        O  0.06065437  0.14195769  0.51336569    -0.86060
C462        C  0.98064386  0.96782873  0.93757739     0.86170
C463        C  0.98461242  0.85466380  0.99573323     1.07740
H464        H  0.04539799  0.06292831  0.97299471     0.39540
O465        O  0.04029455  0.04505924  0.99342824    -1.08720
O466        O  0.97947985  0.02666213  0.54508990    -0.65370
Ni467      Ni  0.96759470  0.03159435  0.50303853     1.26350
O468        O  0.02118716  0.97733148  0.95481431    -0.65600
O469        O  0.97582445  0.10668970  0.49828364    -0.77890
C470        C  0.85552034  0.99002826  0.99666278     0.85550
O471        O  0.89420452  0.01542634  0.51180601    -0.65070
Ni472      Ni  0.09634607  0.08887960  0.51562145     1.27450
Ni473      Ni  0.03361804  0.97035232  0.99672527     1.26060
H474        H  0.95653665  0.93965157  0.52742829     0.40090
O475        O  0.85683239  0.95022309  0.73407894    -0.79860
O476        O  0.10568696  0.98144230  0.74033891    -0.64550
O477        O  0.95949948  0.95422008  0.75739017    -1.11150
C478        C  0.01539900  0.14530030  0.75221706     1.07030
O479        O  0.13904960  0.04023071  0.77034366    -0.77760
O480        O  0.06629383  0.05360145  0.80290177    -0.65340
Ni481      Ni  0.90563213  0.91040490  0.73405256     1.34870
C482        C  0.01812941  0.03308631  0.81159609     0.85760
O483        O  0.02348134  0.89120399  0.75552687    -0.78300
O484        O  0.94513104  0.86176656  0.73219994    -0.88570
C485        C  0.14486382  0.00877630  0.75441415     0.85340
O486        O  0.93394339  0.95482572  0.69751072    -0.66770
O487        O  0.06083113  0.14089690  0.76078658    -0.86060
C488        C  0.98182378  0.96953413  0.68870341     0.86170
C489        C  0.98741220  0.85453813  0.74460675     1.07740
H490        H  0.04521820  0.05786719  0.72225217     0.39540
O491        O  0.03969687  0.04177079  0.74290805    -1.08720
O492        O  0.97807505  0.02586079  0.79394364    -0.65370
Ni493      Ni  0.96697614  0.02973118  0.75194308     1.26350
O494        O  0.02101616  0.96877082  0.70646128    -0.65600
O495        O  0.97598777  0.10543078  0.74611507    -0.77890
C496        C  0.85342487  0.98583529  0.74787052     0.85550
O497        O  0.89384476  0.01566225  0.76006853    -0.65070
Ni498      Ni  0.09564566  0.08695229  0.76472649     1.27450
Ni499      Ni  0.03241191  0.96663392  0.74863098     1.26060
H500        H  0.95313524  0.93723980  0.77793853     0.40090
O501        O  0.85812019  0.45579261  0.98058101    -0.79860
O502        O  0.10615371  0.48795746  0.98646437    -0.64550
O503        O  0.95992120  0.45674013  0.50555432    -1.11150
C504        C  0.01385252  0.64645838  0.50354258     1.07030
O505        O  0.13836457  0.54205744  0.51897760    -0.77760
O506        O  0.06608095  0.55536050  0.55250083    -0.65340
Ni507      Ni  0.90394741  0.41180020  0.98365979     1.34870
C508        C  0.01814873  0.53371822  0.56160121     0.85760
O509        O  0.02552079  0.39612299  0.00012633    -0.78300
O510        O  0.94071268  0.35988016  0.98548537    -0.88570
C511        C  0.14482307  0.51271305  0.50185311     0.85340
O512        O  0.93144711  0.44832639  0.94536542    -0.66770
O513        O  0.06028078  0.64320019  0.51066920    -0.86060
C514        C  0.97929658  0.46945119  0.93610914     0.86170
C515        C  0.98653646  0.35623717  0.99379275     1.07740
H516        H  0.04360001  0.56300181  0.97156914     0.39540
O517        O  0.03875432  0.54537817  0.99205188    -1.08720
O518        O  0.97793676  0.52546974  0.54403239    -0.65370
Ni519      Ni  0.96602113  0.53147334  0.50194861     1.26350
O520        O  0.01997097  0.47644653  0.95342446    -0.65600
O521        O  0.97392225  0.60646623  0.49809820    -0.77890
C522        C  0.85330373  0.48787340  0.99644334     0.85550
O523        O  0.89255866  0.51525663  0.51052646    -0.65070
Ni524      Ni  0.09513001  0.58924124  0.51414380     1.27450
Ni525      Ni  0.03273450  0.47097656  0.99555551     1.26060
H526        H  0.95528045  0.43925259  0.52606260     0.40090
O527        O  0.85461088  0.44717935  0.73613763    -0.79860
O528        O  0.10553678  0.48104651  0.74002895    -0.64550
O529        O  0.95951456  0.45634056  0.75704721    -1.11150
C530        C  0.01377995  0.64514967  0.75173454     1.07030
O531        O  0.14225415  0.54677212  0.76585772    -0.77760
O532        O  0.06503657  0.54635410  0.80125363    -0.65340
Ni533      Ni  0.90546349  0.41033359  0.73464945     1.34870
C534        C  0.01698135  0.53245159  0.80968548     0.85760
O535        O  0.02300969  0.39201482  0.75606589    -0.78300
O536        O  0.94604906  0.36327209  0.73180243    -0.88570
C537        C  0.14598903  0.51128420  0.75208047     0.85340
O538        O  0.93245899  0.45565941  0.69791202    -0.66770
O539        O  0.05570009  0.63790075  0.76458602    -0.86060
C540        C  0.98008690  0.46976074  0.68859730     0.86170
C541        C  0.98761653  0.35544931  0.74476164     1.07740
H542        H  0.04734757  0.55894447  0.72077761     0.39540
O543        O  0.04044261  0.54317099  0.74140262    -1.08720
O544        O  0.97793518  0.53221006  0.79157804    -0.65370
Ni545      Ni  0.96767909  0.53243278  0.74932685     1.26350
O546        O  0.01958025  0.46830004  0.70611815    -0.65600
O547        O  0.97790463  0.60828051  0.74085556    -0.77890
C548        C  0.85310911  0.48708458  0.74686847     0.85550
O549        O  0.89443602  0.52100846  0.75601065    -0.65070
Ni550      Ni  0.09431153  0.58799512  0.76431458     1.27450
Ni551      Ni  0.03231958  0.46765409  0.74823624     1.26060
H552        H  0.95339282  0.44117768  0.77777359     0.40090
O553        O  0.36049297  0.95832463  0.98006697    -0.79860
O554        O  0.60681467  0.98513480  0.98851655    -0.64550
O555        O  0.46050516  0.95624258  0.50618184    -1.11150
C556        C  0.51623711  0.14664616  0.50324893     1.07030
O557        O  0.63924637  0.04113326  0.52008279    -0.77760
O558        O  0.56781653  0.05728417  0.55260176    -0.65340
Ni559      Ni  0.40486330  0.91276182  0.98365594     1.34870
C560        C  0.51996243  0.03414798  0.56161128     0.85760
O561        O  0.52479807  0.89416105  0.00188334    -0.78300
O562        O  0.44070160  0.85995398  0.98568514    -0.88570
C563        C  0.64559724  0.01110219  0.50338662     0.85340
O564        O  0.43414123  0.95009259  0.94597538    -0.66770
O565        O  0.56295988  0.14377674  0.50962335    -0.86060
C566        C  0.48233312  0.96957513  0.93730984     0.86170
C567        C  0.48579538  0.85504323  0.99471850     1.07740
H568        H  0.54479869  0.06118399  0.97211182     0.39540
O569        O  0.54008286  0.04424103  0.99269992    -1.08720
O570        O  0.47953955  0.02463368  0.54431978    -0.65370
Ni571      Ni  0.46740153  0.03104955  0.50248822     1.26350
O572        O  0.52223085  0.97427953  0.95497577    -0.65600
O573        O  0.47586035  0.10621972  0.49877269    -0.77890
C574        C  0.35497220  0.98903095  0.99659726     0.85550
O575        O  0.39406281  0.01504802  0.51130354    -0.65070
Ni576      Ni  0.59693115  0.08908378  0.51414496     1.27450
Ni577      Ni  0.53336034  0.96937117  0.99697167     1.26060
H578        H  0.45494826  0.93848421  0.52661605     0.40090
O579        O  0.36246695  0.96165272  0.72925937    -0.79860
O580        O  0.60696678  0.98811376  0.73762746    -0.64550
O581        O  0.46117897  0.95799896  0.75627805    -1.11150
C582        C  0.51582424  0.14807984  0.75338505     1.07030
O583        O  0.63946928  0.04328585  0.76955752    -0.77760
O584        O  0.56860892  0.05935027  0.80242913    -0.65340
Ni585      Ni  0.40479555  0.91382771  0.73446982     1.34870
C586        C  0.52087302  0.03647421  0.81164432     0.85760
O587        O  0.52552201  0.89634020  0.75093132    -0.78300
O588        O  0.43937889  0.85966279  0.73831402    -0.88570
C589        C  0.64570561  0.01340403  0.75273340     0.85340
O590        O  0.43369904  0.94684876  0.69613760    -0.66770
O591        O  0.56278259  0.14558154  0.75941362    -0.86060
C592        C  0.48166677  0.96892842  0.68724889     0.86170
C593        C  0.48555393  0.85601242  0.74579837     1.07740
H594        H  0.54438425  0.06349539  0.72206236     0.39540
O595        O  0.54005774  0.04631695  0.74262415    -1.08720
O596        O  0.48023623  0.02656606  0.79452103    -0.65370
Ni597      Ni  0.46747027  0.03253483  0.75276959     1.26350
O598        O  0.52194552  0.97732599  0.70466040    -0.65600
O599        O  0.47533965  0.10752577  0.74921001    -0.77890
C600        C  0.35561562  0.99014109  0.74673615     0.85550
O601        O  0.39420346  0.01547497  0.76195413    -0.65070
Ni602      Ni  0.59709506  0.09116195  0.76383804     1.27450
Ni603      Ni  0.53374737  0.97162588  0.74653643     1.26060
H604        H  0.45634463  0.94042072  0.77676776     0.40090
O605        O  0.36020305  0.45739029  0.97959503    -0.79860
O606        O  0.60638604  0.48406361  0.98857010    -0.64550
O607        O  0.46008323  0.45494845  0.50645224    -1.11150
C608        C  0.51336203  0.64443370  0.50411800     1.07030
O609        O  0.64075030  0.54360829  0.51840601    -0.77760
O610        O  0.56702451  0.55225638  0.55283562    -0.65340
Ni611      Ni  0.40382497  0.41058816  0.98452855     1.34870
C612        C  0.51897231  0.53122853  0.56176615     0.85760
O613        O  0.52493670  0.39345084  0.00124940    -0.78300
O614        O  0.43892391  0.35680309  0.98806774    -0.88570
C615        C  0.64559517  0.51136350  0.50267584     0.85340
O616        O  0.43308391  0.44471048  0.94630342    -0.66770
O617        O  0.55904438  0.64041781  0.51236243    -0.86060
C618        C  0.48117889  0.46614170  0.93745876     0.86170
C619        C  0.48525548  0.35359130  0.99550742     1.07740
H620        H  0.54435629  0.56044416  0.97228723     0.39540
O621        O  0.53938062  0.54324468  0.99282856    -1.08720
O622        O  0.47848586  0.52426405  0.54440983    -0.65370
Ni623      Ni  0.46645295  0.52960365  0.50240966     1.26350
O624        O  0.52135845  0.47381856  0.95500997    -0.65600
O625        O  0.47423061  0.60469221  0.49770762    -0.77890
C626        C  0.35411726  0.48776631  0.99619985     0.85550
O627        O  0.39300343  0.51329423  0.51118466    -0.65310
Ni628      Ni  0.59536201  0.58815011  0.51469314     1.27450
Ni629      Ni  0.53295927  0.46839759  0.99696574     1.26060
H630        H  0.45500839  0.43764994  0.52697360     0.40090
O631        O  0.36330364  0.46023911  0.72884782    -0.79860
O632        O  0.60813121  0.48636900  0.73811930    -0.64550
O633        O  0.46228818  0.45745658  0.75651022    -1.11150
C634        C  0.51416113  0.64610506  0.75466813     1.07030
O635        O  0.64384799  0.54805525  0.76681555    -0.77760
O636        O  0.56880404  0.55128610  0.80263168    -0.65340
Ni637      Ni  0.40540271  0.41203284  0.73536991     1.34870
C638        C  0.52069858  0.53221141  0.81157156     0.85760
O639        O  0.52677003  0.39579875  0.75058292    -0.78300
O640        O  0.43937958  0.35729009  0.74059024    -0.88570
C641        C  0.64762984  0.51440355  0.75171794     0.85340
O642        O  0.43439909  0.44253282  0.69674418    -0.66770
O643        O  0.55907141  0.64136823  0.76418620    -0.86060
C644        C  0.48210818  0.46635098  0.68759392     0.86170
C645        C  0.48638668  0.35502489  0.74665482     1.07740
H646        H  0.54658067  0.56335251  0.72214510     0.39540
O647        O  0.54138228  0.54589058  0.74263728    -1.08720
O648        O  0.48044586  0.52782941  0.79411049    -0.65370
Ni649      Ni  0.46837044  0.53206068  0.75210264     1.26350
O650        O  0.52263563  0.47695181  0.70479550    -0.65600
O651        O  0.47584823  0.60712972  0.74687262    -0.77890
C652        C  0.35629638  0.48949105  0.74581549     0.85550
O653        O  0.39488091  0.51528496  0.76086368    -0.65070
Ni654      Ni  0.59677333  0.59052573  0.76487442     1.27450
Ni655      Ni  0.53489210  0.47089014  0.74667288     1.26060
H656        H  0.45778118  0.44070592  0.77713116     0.40090
C657        C  0.53969734  0.52279750  0.89453524     0.24630
C658        C  0.49121210  0.48294069  0.90522364    -0.23480
C659        C  0.45268125  0.45922103  0.88475352     0.19530
C660        C  0.46234586  0.47501121  0.85441115     0.24570
C661        C  0.51081682  0.51483414  0.84376426    -0.23430
C662        C  0.54937543  0.53847637  0.86420693     0.19470
F663        F  0.59602223  0.57806961  0.85488153    -0.13380
F664        F  0.57748355  0.54780731  0.91336402    -0.15750
F665        F  0.42455603  0.45029012  0.83549719    -0.15750
F666        F  0.40594976  0.41972640  0.89403235    -0.13380
C667        C  0.54404707  0.54424225  0.61379408     0.24630
C668        C  0.50951245  0.51441744  0.59391108    -0.23480
C669        C  0.46563252  0.46874468  0.60503011     0.19530
C670        C  0.45663142  0.45307569  0.63544464     0.24570
C671        C  0.49126705  0.48285156  0.65536217    -0.23430
C672        C  0.53500441  0.52870293  0.64417205     0.19470
F673        F  0.56830971  0.55956780  0.66256357    -0.13380
F674        F  0.58572776  0.58956985  0.60378079    -0.15750
F675        F  0.41482296  0.40785500  0.64541538    -0.15750
F676        F  0.43219936  0.43828219  0.58651590    -0.13380
C677        C  0.54455266  0.79790411  0.74925658     0.24630
C678        C  0.49284712  0.80213971  0.74847326    -0.23480
C679        C  0.44811201  0.75418173  0.75000300     0.19530
C680        C  0.45495660  0.70372788  0.75196378     0.24570
C681        C  0.50665202  0.69962699  0.75263784    -0.23430
C682        C  0.55135500  0.74747028  0.75123306     0.19470
F683        F  0.60203295  0.74593210  0.75100916    -0.13380
F684        F  0.58897614  0.84266569  0.74760770    -0.15750
F685        F  0.41067623  0.65878471  0.75367305    -0.15750
F686        F  0.39738709  0.75562782  0.75010536    -0.13380
C687        C  0.54409588  0.24842208  0.73549098     0.24630
C688        C  0.50809355  0.20093423  0.75148454    -0.23480
C689        C  0.46535605  0.20450979  0.76623907     0.19530
C690        C  0.45846700  0.25478585  0.76483737     0.24570
C691        C  0.49439730  0.30225211  0.74879625    -0.23430
C692        C  0.53731235  0.29873207  0.73416094     0.19470
F693        F  0.57155122  0.34376178  0.71773676    -0.13380
F694        F  0.58491810  0.24581825  0.72045847    -0.15750
F695        F  0.41761515  0.25738445  0.77984665    -0.15750
F696        F  0.43143666  0.15958157  0.78287254    -0.13380
C697        C  0.54443918  0.74006914  0.51403200     0.24630
C698        C  0.50591357  0.69809888  0.50189207    -0.23480
C699        C  0.46065615  0.70840123  0.98735324     0.19530
C700        C  0.45428033  0.75915796  0.98490753     0.24570
C701        C  0.49287608  0.80116713  0.99700889    -0.23430
C702        C  0.53806547  0.79077173  0.51160437     0.19470
F703        F  0.57613879  0.82935349  0.52404358    -0.13380
F704        F  0.58834911  0.73219018  0.52873686    -0.15750
F705        F  0.41032109  0.76703184  0.97026910    -0.15750
F706        F  0.42260832  0.66969678  0.97498000    -0.13380
C707        C  0.54799035  0.24811922  0.98856262     0.24630
C708        C  0.50854195  0.19971812  0.50121381    -0.23480
C709        C  0.46184832  0.20249829  0.51232423     0.19530
C710        C  0.45400672  0.25246552  0.51019847     0.24570
C711        C  0.49330158  0.30079295  0.99746223    -0.23430
C712        C  0.54039627  0.29821927  0.98667366     0.19470
F713        F  0.57819499  0.34405288  0.97331315    -0.13380
F714        F  0.59333916  0.24682766  0.97737642    -0.15750
F715        F  0.40876288  0.25377620  0.52150303    -0.15750
F716        F  0.42494593  0.15704797  0.52655003    -0.13380
C717        C  0.46297760  0.01729704  0.85552884     0.24630
C718        C  0.51168766  0.02043110  0.84384134    -0.23480
C719        C  0.55096661  0.00733626  0.86317672     0.19530
C720        C  0.54154876  0.99096720  0.89350462     0.24570
C721        C  0.49262408  0.98742738  0.90519644    -0.23430
C722        C  0.45357205  0.00105142  0.88582328     0.19470
F723        F  0.40647841  0.99976687  0.89617282    -0.13380
F724        F  0.42463986  0.03107319  0.83771461    -0.15750
F725        F  0.57993447  0.97719296  0.91126236    -0.15750
F726        F  0.59797770  0.00870478  0.85268332    -0.13380
C727        C  0.54626357  0.04542446  0.61388158     0.24630
C728        C  0.51044454  0.01735054  0.59377152    -0.23480
C729        C  0.46505276  0.97317032  0.60469565     0.19530
C730        C  0.45563683  0.95754329  0.63502316     0.24570
C731        C  0.49141322  0.98565128  0.65512209    -0.23430
C732        C  0.53686209  0.02974816  0.64422146     0.19470
F733        F  0.57160872  0.05876979  0.66286263    -0.13380
F734        F  0.58971417  0.08909909  0.60418944    -0.15750
F735        F  0.41219227  0.91386631  0.64472642    -0.15750
F736        F  0.43030901  0.94404120  0.58609314    -0.13380
C737        C  0.79361032  0.54415241  0.73601836     0.24630
C738        C  0.80072892  0.49429365  0.74846723    -0.23480
C739        C  0.75712892  0.45099922  0.76195898     0.19530
C740        C  0.70704577  0.45745816  0.76296302     0.24570
C741        C  0.69999594  0.50725928  0.75046623    -0.23430
C742        C  0.74350995  0.55055519  0.73701154     0.19470
F743        F  0.73698818  0.59853144  0.72416963    -0.13380
F744        F  0.83470910  0.58599697  0.72207077    -0.15750
F745        F  0.66577905  0.41562845  0.77676955    -0.15750
F746        F  0.76352272  0.40298282  0.77483640    -0.13380
C747        C  0.24454812  0.53653707  0.76507581     0.24630
C748        C  0.19960158  0.50514186  0.75051311    -0.23480
C749        C  0.20691750  0.46845133  0.73433720     0.19530
C750        C  0.25751517  0.46339332  0.73277345     0.24570
C751        C  0.30240185  0.49494728  0.74728598    -0.23430
C752        C  0.29494304  0.53129719  0.76361146     0.19470
F753        F  0.33636951  0.56205703  0.77844981    -0.13380
F754        F  0.24022892  0.57267699  0.78096383    -0.15750
F755        F  0.26210616  0.42698767  0.71716582    -0.15750
F756        F  0.16526802  0.43741777  0.71973488    -0.13380
C757        C  0.79580732  0.54520852  0.99778635     0.24630
C758        C  0.80020773  0.49396125  0.99798808    -0.23480
C759        C  0.75333198  0.44833337  0.49974656     0.19530
C760        C  0.70301557  0.45386152  0.50141439     0.24570
C761        C  0.69863506  0.50513212  0.00125092    -0.23430
C762        C  0.74552508  0.55073319  0.99951322     0.19470
F763        F  0.74253562  0.60100424  0.99852247    -0.13380
F764        F  0.84002496  0.59029831  0.99473816    -0.15750
F765        F  0.65873320  0.40880454  0.50425222    -0.15750
F766        F  0.75634876  0.39808000  0.50071851    -0.13380
C767        C  0.24417590  0.53985570  0.51331855     0.24630
C768        C  0.19831641  0.50611128  0.00052854    -0.23480
C769        C  0.20445991  0.46646786  0.98617001     0.19530
C770        C  0.25478000  0.46076860  0.98464480     0.24570
C771        C  0.30063192  0.49448432  0.99744671    -0.23430
C772        C  0.29450424  0.53416789  0.51178881     0.19470
F773        F  0.33729213  0.56821256  0.52420390    -0.13380
F774        F  0.24079329  0.57916732  0.52709498    -0.15750
F775        F  0.25812887  0.42145967  0.97085518    -0.15750
F776        F  0.16164880  0.43239150  0.97378835    -0.13380
C777        C  0.94911294  0.46240601  0.88342884     0.24630
C778        C  0.98825406  0.48632041  0.90366742    -0.23480
C779        C  0.03638085  0.52617300  0.89252719     0.19530
C780        C  0.04538279  0.54120379  0.86208512     0.24570
C781        C  0.00648856  0.51698023  0.84191659    -0.23430
C782        C  0.95808599  0.47770299  0.85293015     0.19470
F783        F  0.92003979  0.45267714  0.83423150    -0.13380
F784        F  0.90263082  0.42291741  0.89310175    -0.15750
F785        F  0.09189404  0.58057625  0.85232552    -0.15750
F786        F  0.07458627  0.55157808  0.91104214    -0.13380
C787        C  0.05166917  0.52255190  0.61453299     0.24630
C788        C  0.00849477  0.51761951  0.59413550    -0.23480
C789        C  0.95588137  0.49740669  0.60529685     0.19530
C790        C  0.94676661  0.48244502  0.63573910     0.24570
C791        C  0.98991709  0.48711203  0.65612454    -0.23430
C792        C  0.04253677  0.50759569  0.64499124     0.19470
F793        F  0.08572018  0.51346675  0.66350096    -0.13380
F794        F  0.10320142  0.54166229  0.60519313    -0.15750
F795        F  0.89520764  0.46280772  0.64505945    -0.15750
F796        F  0.91264478  0.49197378  0.58684526    -0.13380
C797        C  0.01962433  0.77905743  0.77100743     0.24630
C798        C  0.99471306  0.80130395  0.74617444    -0.23480
C799        C  0.97578254  0.77162660  0.72320917     0.19530
C800        C  0.98162071  0.72071199  0.72506388     0.24570
C801        C  0.00658604  0.69850904  0.74989751    -0.23430
C802        C  0.02544949  0.72818917  0.77286555     0.19470
F803        F  0.04815830  0.70723895  0.79759296    -0.13380
F804        F  0.03678360  0.80574151  0.79399763    -0.15750
F805        F  0.96429554  0.69388634  0.70214097    -0.15750
F806        F  0.95289797  0.79255962  0.69855396    -0.13380
C807        C  0.95039609  0.25526250  0.74405143     0.24630
C808        C  0.99495123  0.30198504  0.74621113    -0.23480
C809        C  0.04630554  0.29684032  0.74993039     0.19530
C810        C  0.05298763  0.24639604  0.75147704     0.24570
C811        C  0.00835456  0.19938504  0.74959741    -0.23430
C812        C  0.95695637  0.20472643  0.74573917     0.19470
F813        F  0.91250690  0.16092725  0.74410694    -0.13380
F814        F  0.89992888  0.25795038  0.74111826    -0.15750
F815        F  0.10357428  0.24405924  0.75456114    -0.15750
F816        F  0.09050822  0.34083848  0.75164334    -0.13380
C817        C  0.75472031  0.96087715  0.73551252     0.24630
C818        C  0.80031563  0.99298054  0.74927332    -0.23480
C819        C  0.79438924  0.03209792  0.76413938     0.19530
C820        C  0.74444675  0.03871376  0.76527214     0.24570
C821        C  0.69891526  0.00648606  0.75155379    -0.23430
C822        C  0.70500267  0.96784669  0.73643543     0.19470
F823        F  0.66289444  0.93652227  0.72226835    -0.13380
F824        F  0.75776554  0.92242260  0.72094229    -0.15750
F825        F  0.74117943  0.07746557  0.77953711    -0.15750
F826        F  0.83684736  0.06432227  0.77769713    -0.13380
C827        C  0.29496765  0.03427814  0.76299094     0.24630
C828        C  0.30172503  0.99501845  0.74861925    -0.23480
C829        C  0.25613421  0.95983112  0.73645359     0.19530
C830        C  0.20533243  0.96386371  0.73855348     0.24570
C831        C  0.19861003  0.00330132  0.75283458    -0.23430
C832        C  0.24423433  0.03840121  0.76505078     0.19470
F833        F  0.24028189  0.07756295  0.77876230    -0.13380
F834        F  0.33753678  0.06948953  0.77485576    -0.15750
F835        F  0.16274715  0.92860917  0.72668930    -0.15750
F836        F  0.26025136  0.92069809  0.72277714    -0.13380
C837        C  0.95116684  0.75285268  0.50920552     0.24630
C838        C  0.99189642  0.80126711  0.99778344    -0.23480
C839        C  0.03941704  0.79812448  0.98792321     0.19530
C840        C  0.04673679  0.74790504  0.99002510     0.24570
C841        C  0.00616511  0.69956226  0.50153991    -0.23430
C842        C  0.95831443  0.70251149  0.51113898     0.19470
F843        F  0.91925921  0.65677988  0.52347586    -0.13380
F844        F  0.90487455  0.75425686  0.51917300    -0.15750
F845        F  0.09292222  0.74649938  0.97991205    -0.15750
F846        F  0.07783276  0.84354115  0.97491266    -0.13380
C847        C  0.04161237  0.23944953  0.51763653     0.24630
C848        C  0.00775923  0.19993466  0.50208592    -0.23480
C849        C  0.96715349  0.21259119  0.98361217     0.19530
C850        C  0.96063829  0.26334251  0.98074964     0.24570
C851        C  0.99441705  0.30282783  0.99632508    -0.23430
C852        C  0.03508814  0.29023909  0.51476969     0.19470
F853        F  0.06786354  0.32650144  0.53073665    -0.13380
F854        F  0.08045146  0.22868400  0.53624985    -0.15750
F855        F  0.92174788  0.27405373  0.96215811    -0.15750
F856        F  0.93429009  0.17635773  0.96765934    -0.13380
C857        C  0.75545819  0.95722989  0.48892876     0.24630
C858        C  0.80190191  0.99575407  0.99818740    -0.23480
C859        C  0.79632616  0.03918968  0.00932007     0.19530
C860        C  0.74570794  0.04391187  0.01116103     0.24570
C861        C  0.69921772  0.00535759  0.00191053    -0.23430
C862        C  0.70484522  0.96195172  0.49075858     0.19470
F863        F  0.66125802  0.92323955  0.48202557    -0.13380
F864        F  0.75860657  0.91401995  0.47861924    -0.15750
F865        F  0.74258695  0.08714872  0.02145299    -0.15750
F866        F  0.83996377  0.07797321  0.01795758    -0.13380
C867        C  0.25493100  0.95688811  0.48897524     0.24630
C868        C  0.30160808  0.99536784  0.99798700    -0.23480
C869        C  0.29649059  0.03965472  0.00840123     0.19530
C870        C  0.24624100  0.04538525  0.00979535     0.24570
C871        C  0.19955949  0.00682806  0.50084230    -0.23430
C872        C  0.20473404  0.96271551  0.49029230     0.19470
F873        F  0.16108206  0.92438438  0.48162882    -0.13380
F874        F  0.25739046  0.91270899  0.47940118    -0.15750
F875        F  0.24371716  0.08954717  0.01935914    -0.15750
F876        F  0.34022905  0.07824284  0.01682254    -0.13380
C877        C  0.95309011  0.95768370  0.88516443     0.24630
C878        C  0.98979142  0.98484027  0.90530505    -0.23480
C879        C  0.03564165  0.02834717  0.89427539     0.19530
C880        C  0.04470609  0.04407018  0.86389268     0.24570
C881        C  0.00812039  0.01679298  0.84377678    -0.23430
C882        C  0.96212755  0.97351000  0.85475771     0.19470
F883        F  0.92656507  0.94526323  0.83612940    -0.13380
F884        F  0.90910445  0.91466580  0.89487340    -0.15750
F885        F  0.08878717  0.08696430  0.85416111    -0.15750
F886        F  0.07131348  0.05667926  0.91283646    -0.13380
C887        C  0.96355362  0.01826161  0.60671055     0.24630
C888        C  0.01023213  0.01676053  0.59482343    -0.23480
C889        C  0.04791703  0.00038611  0.61411452     0.19530
C890        C  0.03900146  0.98556257  0.64455414     0.24570
C891        C  0.99218071  0.98686994  0.65648382    -0.23430
C892        C  0.95468214  0.00363846  0.63713890     0.19470
F893        F  0.90962258  0.00688527  0.64762520    -0.13380
F894        F  0.92689117  0.03522169  0.58896857    -0.15750
F895        F  0.07572308  0.96851891  0.66218861    -0.15750
F896        F  0.09289385  0.99721962  0.60348060    -0.13380
loop_ 
_geom_bond_atom_site_label_1 
_geom_bond_atom_site_label_2 
_geom_bond_distance 
_geom_bond_site_symmetry_2 
_ccdc_geom_bond_type 
O1           Ni7   1.934       .  S
O1           C22   1.272       .  A
O2          Ni25   1.903       .  S
O2          C459   1.267   1_565  A
O3           H26   0.966       .  S
O3          Ni19   1.910   1_565  S
O3         Ni455   1.922   1_554  S
O3         Ni473   1.911   1_654  S
C4           O21   1.271   1_454  A
C4           O13   1.276       .  A
C4          C400   1.486       .  S
O5          Ni24   1.933       .  S
O5           C11   1.272       .  A
O6          Ni24   1.905       .  S
O6            C8   1.268       .  A
Ni7          O10   1.926       .  S
Ni7          O12   1.910       .  S
Ni7         O451   1.922       .  S
C8           O18   1.273   1_455  A
C8          C440   1.483       .  S
O9          Ni25   1.913       .  S
O9           C15   1.274   1_455  A
O10          C15   1.274       .  A
C11         O450   1.267   1_544  A
C11         C423   1.487       .  S
O12          C14   1.270       .  A
O13         Ni24   1.931       .  S
C14          O20   1.271   1_655  A
C14         C430   1.483       .  S
C15         C390   1.481       .  S
H16          O17   0.966       .  S
O17         Ni25   1.911   1_545  S
O17        Ni467   1.908   1_455  S
O17        Ni472   1.918       .  S
O18         Ni19   1.929       .  S
Ni19         O23   1.902       .  S
Ni19         O21   1.904   1_554  S
Ni19        O465   1.908   1_654  S
O20         Ni25   1.921       .  S
C22         O471   1.266   1_565  A
C22         C410   1.488       .  S
O23         C470   1.266   1_544  A
Ni24        O465   1.918   1_554  S
Ni25        O451   1.911   1_455  S
O27         Ni33   1.929       .  S
O27          C48   1.272       .  A
O28         Ni51   1.900       .  S
O28          C37   1.265   1_565  A
O29          H52   0.968       .  S
O29         Ni33   1.921       .  S
O29         Ni51   1.908   1_655  S
O29         Ni45   1.917   1_565  S
C30          O47   1.272   1_455  A
C30          O39   1.274       .  A
C30         C363   1.493       .  S
O31         Ni50   1.931       .  S
O31          C37   1.271       .  A
O32         Ni50   1.905       .  S
O32          C34   1.268       .  A
Ni33         O36   1.937       .  S
Ni33         O38   1.901       .  S
C34          O44   1.272   1_455  A
C34         C433   1.482       .  S
O35         Ni51   1.903       .  S
O35          C41   1.268   1_455  A
O36          C41   1.274       .  A
C37         C383   1.488       .  S
O38          C40   1.269       .  A
O39         Ni50   1.926       .  S
C40          O46   1.275   1_655  A
C40         C443   1.486       .  S
C41         C350   1.480       .  S
H42          O43   0.966       .  S
O43         Ni51   1.908   1_545  S
O43         Ni45   1.909   1_455  S
O43         Ni50   1.924       .  S
O44         Ni45   1.927       .  S
Ni45         O49   1.898       .  S
Ni45         O47   1.912       .  S
O46         Ni51   1.940       .  S
C48          O49   1.266   1_565  A
C48         C370   1.490       .  S
O53         Ni59   1.932       .  S
O53          C74   1.272       .  A
O54         Ni77   1.903       .  S
O54         C511   1.266       .  A
O55          H78   0.966       .  S
O55         Ni71   1.914       .  S
O55        Ni507   1.922   1_554  S
O55        Ni525   1.912   1_654  S
C56          O73   1.272   1_454  A
C56          O65   1.276       .  A
C56         C393   1.479       .  S
O57         Ni76   1.939       .  S
O57          C63   1.273       .  A
O58         Ni76   1.911       .  S
O58          C60   1.270       .  A
Ni59         O62   1.928       .  S
Ni59         O64   1.909       .  S
Ni59        O503   1.922       .  S
C60          O70   1.273   1_455  A
C60         C340   1.496       .  S
O61         Ni77   1.905       .  S
O61          C67   1.270   1_455  A
O62          C67   1.274       .  A
C63         O502   1.266   1_554  A
C63         C768   1.494       .  S
O64          C66   1.270       .  A
O65         Ni76   1.929       .  S
C66          O72   1.275   1_655  A
C66         C330   1.490       .  S
C67         C403   1.486       .  S
H68          O69   0.966       .  S
O69         Ni77   1.906       .  S
O69        Ni519   1.910   1_455  S
O69        Ni524   1.920       .  S
O70         Ni71   1.929       .  S
Ni71         O75   1.902       .  S
Ni71         O73   1.908   1_554  S
Ni71        O517   1.910   1_654  S
O72         Ni77   1.934       .  S
C74         O523   1.267       .  A
C74         C310   1.478       .  S
O75         C522   1.267   1_554  A
Ni76        O517   1.920   1_554  S
Ni77        O503   1.912   1_455  S
O79         Ni85   1.928       .  S
O79         C100   1.271       .  A
O80        Ni103   1.905       .  S
O80          C89   1.268       .  A
O81         H104   0.966       .  S
O81         Ni85   1.925       .  S
O81        Ni103   1.913   1_655  S
O81         Ni97   1.924       .  S
C82          O99   1.268   1_455  A
C82          O91   1.273       .  A
C82         C353   1.481       .  S
O83        Ni102   1.929       .  S
O83          C89   1.272       .  A
O84        Ni102   1.901       .  S
O84          C86   1.269       .  A
Ni85         O88   1.934       .  S
Ni85         O90   1.907       .  S
C86          O96   1.278   1_455  A
C86         C333   1.486       .  S
O87        Ni103   1.905       .  S
O87          C93   1.267   1_455  A
O88          C93   1.272       .  A
C89         C300   1.493       .  S
O90          C92   1.272       .  A
O91        Ni102   1.934       .  S
C92          O98   1.279   1_655  A
C92         C343   1.495       .  S
C93         C360   1.488       .  S
H94          O95   0.966       .  S
O95        Ni103   1.910       .  S
O95         Ni97   1.905   1_455  S
O95        Ni102   1.922       .  S
O96         Ni97   1.949       .  S
Ni97        O101   1.900       .  S
Ni97         O99   1.906       .  S
O98        Ni103   1.946       .  S
C100        O101   1.266       .  A
C100        C290   1.473       .  S
O105       Ni111   1.932       .  S
O105        C126   1.272       .  A
O106       Ni129   1.902       .  S
O106        C563   1.266   1_565  A
O107        H130   0.966       .  S
O107       Ni123   1.910   1_565  S
O107       Ni559   1.918   1_554  S
O107       Ni577   1.909   1_554  S
C108        O125   1.272   1_554  A
C108        O117   1.274       .  A
C108        C260   1.478       .  S
O109       Ni128   1.934       .  S
O109        C115   1.272       .  A
O110       Ni128   1.908       .  S
O110        C112   1.270       .  A
Ni111       O114   1.929       .  S
Ni111       O116   1.903       .  S
Ni111       O555   1.918       .  S
C112        O122   1.270       .  A
C112        C280   1.479       .  S
O113       Ni129   1.905       .  S
O113        C119   1.271       .  A
O114        C119   1.275       .  A
C115        O554   1.266   1_544  A
C115        C861   1.488       .  S
O116        C118   1.268       .  A
O117       Ni128   1.926       .  S
C118        O124   1.271       .  A
C118        C273   1.482       .  S
C119        C253   1.490       .  S
H120        O121   0.966       .  S
O121       Ni129   1.910   1_545  S
O121       Ni571   1.911       .  S
O121       Ni576   1.922       .  S
O122       Ni123   1.917       .  S
Ni123       O127   1.902       .  S
Ni123       O125   1.909   1_554  S
Ni123       O569   1.911   1_554  S
O124       Ni129   1.925       .  S
C126        O575   1.267   1_565  A
C126        C420   1.487       .  S
O127        C574   1.267   1_544  A
Ni128       O569   1.922   1_554  S
Ni129       O555   1.909       .  S
O131       Ni137   1.933       .  S
O131        C152   1.272       .  A
O132       Ni155   1.898       .  S
O132        C141   1.265   1_565  A
O133        H156   0.966       .  S
O133       Ni137   1.917       .  S
O133       Ni155   1.905       .  S
O133       Ni149   1.908   1_565  S
C134        O151   1.272       .  A
C134        O143   1.275       .  A
C134        C240   1.473       .  S
O135       Ni154   1.934       .  S
O135        C141   1.272       .  A
O136       Ni154   1.908       .  S
O136        C138   1.269       .  A
Ni137       O140   1.928       .  S
Ni137       O142   1.906       .  S
C138        O148   1.270       .  A
C138        C270   1.479       .  S
O139       Ni155   1.911       .  S
O139        C145   1.273       .  A
O140        C145   1.276       .  A
C141        C373   1.489       .  S
O142        C144   1.269       .  A
O143       Ni154   1.926       .  S
C144        O150   1.270       .  A
C144        C283   1.479       .  S
C145        C230   1.490       .  S
H146        O147   0.966       .  S
O147       Ni155   1.910   1_545  S
O147       Ni149   1.910       .  S
O147       Ni154   1.918       .  S
O148       Ni149   1.916       .  S
Ni149       O153   1.900       .  S
Ni149       O151   1.909       .  S
O150       Ni155   1.919       .  S
C152        O153   1.266   1_565  A
C152        C380   1.488       .  S
O157       Ni163   1.939       .  S
O157        C178   1.273       .  A
O158       Ni181   1.901       .  S
O158        C615   1.266       .  A
O159        H182   0.966       .  S
O159       Ni175   1.908       .  S
O159       Ni611   1.920   1_554  S
O159       Ni629   1.911   1_554  S
C160        O177   1.271   1_554  A
C160        O169   1.273       .  A
C160        C250   1.489       .  S
O161       Ni180   1.932       .  S
O161        C167   1.272       .  A
O162       Ni180   1.906       .  S
O162        C164   1.270       .  A
Ni163       O166   1.930       .  S
Ni163       O168   1.909       .  S
Ni163       O607   1.920       .  S
C164        O174   1.272       .  A
C164        C220   1.479       .  S
O165       Ni181   1.904       .  S
O165        C171   1.270       .  A
O166        C171   1.275       .  A
C167        O606   1.266   1_554  A
C167        C761   1.478       .  S
O168        C170   1.270       .  A
O169       Ni180   1.924       .  S
C170        O176   1.271       .  A
C170        C210   1.485       .  S
C171        C263   1.475       .  S
H172        O173   0.966       .  S
O173       Ni181   1.912       .  S
O173       Ni623   1.912       .  S
O173       Ni628   1.922       .  S
O174       Ni175   1.926       .  S
Ni175       O179   1.903       .  S
Ni175       O177   1.907   1_554  S
Ni175       O621   1.912   1_554  S
O176       Ni181   1.923       .  S
C178        O627   1.266       .  A
C178        C323   1.494       .  S
O179        C626   1.266   1_554  A
Ni180       O621   1.922   1_554  S
Ni181       O607   1.911       .  S
O183       Ni189   1.935       .  S
O183        C204   1.272       .  A
O184       Ni207   1.899       .  S
O184        C193   1.265       .  A
O185        H208   0.966       .  S
O185       Ni189   1.921       .  S
O185       Ni207   1.908       .  S
O185       Ni201   1.907       .  S
C186        O203   1.270       .  A
C186        O195   1.274       .  A
C186        C233   1.487       .  S
O187       Ni206   1.933       .  S
O187        C193   1.272       .  A
O188       Ni206   1.907       .  S
O188        C190   1.270       .  A
Ni189       O192   1.925       .  S
Ni189       O194   1.910       .  S
C190        O200   1.273       .  A
C190        C213   1.483       .  S
O191       Ni207   1.908       .  S
O191        C197   1.271       .  A
O192        C197   1.274       .  A
C193        C293   1.470       .  S
O194        C196   1.270       .  A
O195       Ni206   1.929       .  S
C196        O202   1.271       .  A
C196        C223   1.481       .  S
C197        C243   1.473       .  S
H198        O199   0.966       .  S
O199       Ni207   1.916       .  S
O199       Ni201   1.912       .  S
O199       Ni206   1.921       .  S
O200       Ni201   1.929       .  S
Ni201       O205   1.902       .  S
Ni201       O203   1.907       .  S
O202       Ni207   1.920       .  S
C204        O205   1.266       .  A
C204        C303   1.491       .  S
C209        C210   1.410       .  A
C209        C214   1.398       .  A
C209        F216   1.358       .  S
C210        C211   1.409       .  A
C211        C212   1.399       .  A
C211        F218   1.358       .  S
C212        C213   1.409       .  A
C212        F217   1.358       .  S
C213        C214   1.408       .  A
C214        F215   1.358       .  S
C219        C220   1.406       .  A
C219        C224   1.397       .  A
C219        F226   1.358       .  S
C220        C221   1.407       .  A
C221        C222   1.399       .  A
C221        F228   1.358       .  S
C222        C223   1.408       .  A
C222        F227   1.358       .  S
C223        C224   1.409       .  A
C224        F225   1.358       .  S
C229        C230   1.409       .  A
C229        C234   1.398       .  A
C229        F236   1.356       .  S
C230        C231   1.411       .  A
C231        C232   1.399       .  A
C231        F238   1.358       .  S
C232        C233   1.408       .  A
C232        F237   1.356       .  S
C233        C234   1.409       .  A
C234        F235   1.358       .  S
C239        C240   1.405       .  A
C239        C244   1.399       .  A
C239        F246   1.358       .  S
C240        C241   1.405       .  A
C241        C242   1.399       .  A
C241        F248   1.357       .  S
C242        C243   1.405       .  A
C242        F247   1.358       .  S
C243        C244   1.406       .  A
C244        F245   1.358       .  S
C249        C250   1.411       .  A
C249        C254   1.397       .  A
C249        F256   1.358       .  S
C250        C699   1.409   1_554  A
C251        C252   1.399       .  A
C251        C698   1.409       .  A
C251        F258   1.358       .  S
C252        C253   1.412       .  A
C252        F257   1.358       .  S
C253        C702   1.410       .  A
C254        C701   1.410   1_554  A
C254        F255   1.358       .  S
C259        C264   1.399       .  A
C259        C708   1.406       .  A
C259        F266   1.358       .  S
C260        C261   1.406       .  A
C260        C707   1.406   1_554  A
C261        C262   1.397       .  A
C261        F268   1.354       .  S
C262        C711   1.404   1_554  A
C262        F267   1.358       .  S
C263        C264   1.407       .  A
C263        C710   1.404       .  A
C264        F265   1.357       .  S
C269        C270   1.408       .  A
C269        C274   1.396       .  A
C269        F276   1.358       .  S
C270        C271   1.407       .  A
C271        C272   1.398   1_545  A
C271        F278   1.358       .  S
C272        C273   1.410       .  A
C272        F277   1.358       .  S
C273        C274   1.408   1_565  A
C274        F275   1.358   1_545  S
C279        C280   1.407       .  A
C279        C284   1.397       .  A
C279        F286   1.358       .  S
C280        C281   1.409   1_545  A
C281        C282   1.397       .  A
C281        F288   1.358       .  S
C282        C283   1.407       .  A
C282        F287   1.358       .  S
C283        C284   1.408   1_565  A
C284        F285   1.358       .  S
C289        C290   1.406       .  A
C289        C294   1.400       .  A
C289        F296   1.358       .  S
C290        C291   1.406       .  A
C291        C292   1.400       .  A
C291        F298   1.358       .  S
C292        C293   1.404       .  A
C292        F297   1.358       .  S
C293        C294   1.404       .  A
C294        F295   1.358       .  S
C299        C300   1.412       .  A
C299        C304   1.397       .  A
C299        F306   1.358       .  S
C300        C301   1.410       .  A
C301        C302   1.401       .  A
C301        F308   1.357       .  S
C302        C303   1.411       .  A
C302        F307   1.358       .  S
C303        C304   1.409       .  A
C304        F305   1.357       .  S
C309        C310   1.405       .  A
C309        C314   1.399       .  A
C309        F316   1.356       .  S
C310        C759   1.407       .  A
C311        C312   1.399   1_556  A
C311        C758   1.407       .  A
C311        F318   1.358   1_556  S
C312        C761   1.406       .  A
C312        F317   1.357       .  S
C313        C615   1.478       .  S
C313        C314   1.406       .  A
C313        C760   1.406       .  A
C314        F315   1.358       .  S
C319        C324   1.401       .  A
C319        C768   1.411       .  A
C319        F326   1.358       .  S
C320        C511   1.494       .  S
C320        C321   1.411       .  A
C320        C767   1.411       .  A
C321        C322   1.401       .  A
C321        F328   1.358       .  S
C322        C323   1.411       .  A
C322        F327   1.358       .  S
C323        C772   1.411       .  A
C324        C771   1.411   1_554  A
C324        F325   1.358       .  S
C329        C330   1.412       .  A
C329        C334   1.402       .  A
C329        F336   1.358       .  S
C330        C331   1.409   1_655  A
C331        C332   1.400       .  A
C331        F338   1.358       .  S
C332        C333   1.409       .  A
C332        F337   1.358       .  S
C333        C334   1.407   1_455  A
C334        F335   1.358       .  S
C339        C340   1.412       .  A
C339        C344   1.401       .  A
C339        F346   1.358       .  S
C340        C341   1.412   1_455  A
C341        C342   1.400       .  A
C341        F348   1.358       .  S
C342        C343   1.411       .  A
C342        F347   1.358       .  S
C343        C344   1.411   1_655  A
C344        F345   1.358       .  S
C349        C350   1.407   1_455  A
C349        C354   1.399       .  A
C349        F356   1.358       .  S
C350        C351   1.408       .  A
C351        C352   1.400       .  A
C351        F358   1.358       .  S
C352        C353   1.407   1_655  A
C352        F357   1.358       .  S
C353        C354   1.408       .  A
C354        F355   1.358       .  S
C359        C360   1.409       .  A
C359        C364   1.400       .  A
C359        F366   1.358       .  S
C360        C361   1.407   1_655  A
C361        C362   1.400       .  A
C361        F368   1.357       .  S
C362        C363   1.413       .  A
C362        F367   1.358       .  S
C363        C364   1.411   1_455  A
C364        F365   1.357       .  S
C369        C370   1.411       .  A
C369        C374   1.396       .  A
C369        F376   1.358       .  S
C370        C371   1.411   1_565  A
C371        C372   1.399       .  A
C371        F378   1.358       .  S
C372        C373   1.410       .  A
C372        F377   1.358       .  S
C373        C374   1.409   1_545  A
C374        F375   1.357       .  S
C379        C380   1.409   1_545  A
C379        C384   1.397       .  A
C379        F386   1.357       .  S
C380        C381   1.410       .  A
C381        C382   1.398       .  A
C381        F388   1.358       .  S
C382        C383   1.410   1_565  A
C382        F387   1.358       .  S
C383        C384   1.411       .  A
C384        F385   1.358       .  S
C389        C394   1.400       .  A
C389        C838   1.407   1_554  A
C389        F396   1.358       .  S
C390        C391   1.406   1_655  A
C390        C837   1.407       .  A
C391        C392   1.398       .  A
C391        F398   1.353       .  S
C392        C841   1.405       .  A
C392        F397   1.358       .  S
C393        C394   1.407   1_455  A
C393        C840   1.405   1_554  A
C394        F395   1.357       .  S
C399        C400   1.410       .  A
C399        C404   1.399       .  A
C399        F406   1.358       .  S
C400        C849   1.409   1_454  A
C401        C402   1.398       .  A
C401        C848   1.409   1_655  A
C401        F408   1.358       .  S
C402        C403   1.409       .  A
C402        F407   1.358       .  S
C403        C852   1.409   1_655  A
C404        C851   1.409   1_454  A
C404        F405   1.358       .  S
C409        C414   1.399       .  A
C409        C858   1.410       .  A
C409        F416   1.358       .  S
C410        C411   1.409   1_565  A
C410        C857   1.410       .  A
C411        C412   1.399       .  A
C411        F418   1.358       .  S
C412        C413   1.410       .  A
C412        F417   1.358       .  S
C413        C563   1.488       .  S
C413        C862   1.409   1_545  A
C414        C861   1.409   1_566  A
C414        F415   1.358       .  S
C419        C424   1.397       .  A
C419        C868   1.408       .  A
C419        F426   1.358       .  S
C420        C421   1.408   1_565  A
C420        C867   1.408       .  A
C421        C422   1.398       .  A
C421        F428   1.353       .  S
C422        C871   1.409       .  A
C422        F427   1.358       .  S
C423        C424   1.407   1_544  A
C423        C870   1.409       .  A
C424        F425   1.352       .  S
C429        C430   1.408       .  A
C429        C434   1.399       .  A
C429        F436   1.358       .  S
C430        C431   1.409   1_665  A
C431        C432   1.398       .  A
C431        F438   1.358       .  S
C432        C433   1.407       .  A
C432        F437   1.358       .  S
C433        C434   1.408   1_445  A
C434        F435   1.358       .  S
C439        C440   1.407   1_655  A
C439        C444   1.398       .  A
C439        F446   1.358       .  S
C440        C441   1.408       .  A
C441        C442   1.399   1_545  A
C441        F448   1.358   1_545  S
C442        C443   1.410   1_455  A
C442        F447   1.358       .  S
C443        C444   1.410   1_565  A
C444        F445   1.358       .  S
O449       Ni455   1.934       .  S
O449        C470   1.272       .  A
O450       Ni473   1.903       .  S
O451        H474   0.966       .  S
O451       Ni467   1.910   1_565  S
C452        O469   1.271   1_455  A
C452        O461   1.276       .  A
C452        C848   1.486       .  S
O453       Ni472   1.933       .  S
O453        C459   1.272       .  A
O454       Ni472   1.905       .  S
O454        C456   1.268       .  A
Ni455       O458   1.926       .  S
Ni455       O460   1.910       .  S
C456        O466   1.273   1_455  A
C456        C888   1.483       .  S
O457       Ni473   1.913   1_554  S
O457        C463   1.274   1_454  A
O458        C463   1.274       .  A
C459        C871   1.487       .  S
O460        C462   1.270       .  A
O461       Ni472   1.931       .  S
C462        O468   1.271   1_655  A
C462        C878   1.483       .  S
C463        C838   1.481       .  S
H464        O465   0.966       .  S
O465       Ni473   1.911   1_545  S
O466       Ni467   1.929       .  S
Ni467       O471   1.902       .  S
Ni467       O469   1.904       .  S
O468       Ni473   1.921       .  S
C470        C858   1.488       .  S
O475       Ni481   1.929       .  S
O475        C496   1.272       .  A
O476       Ni499   1.900       .  S
O476        C485   1.265   1_565  A
O477        H500   0.968       .  S
O477       Ni481   1.921       .  S
O477       Ni499   1.908   1_655  S
O477       Ni493   1.917   1_565  S
C478        O495   1.272   1_455  A
C478        O487   1.274       .  A
C478        C811   1.493       .  S
O479       Ni498   1.931       .  S
O479        C485   1.271       .  A
O480       Ni498   1.905       .  S
O480        C482   1.269       .  A
Ni481       O484   1.937       .  S
Ni481       O486   1.901       .  S
C482        O492   1.272   1_455  A
C482        C881   1.482       .  S
O483       Ni499   1.903       .  S
O483        C489   1.268   1_455  A
O484        C489   1.274       .  A
C485        C831   1.488       .  S
O486        C488   1.269       .  A
O487       Ni498   1.926       .  S
C488        O494   1.275   1_655  A
C488        C891   1.486       .  S
C489        C798   1.480       .  S
H490        O491   0.966       .  S
O491       Ni499   1.908   1_545  S
O491       Ni493   1.909   1_455  S
O491       Ni498   1.924       .  S
O492       Ni493   1.927       .  S
Ni493       O497   1.898       .  S
Ni493       O495   1.912       .  S
O494       Ni499   1.940       .  S
C496        O497   1.266   1_565  A
C496        C818   1.490       .  S
O501       Ni507   1.932       .  S
O501        C522   1.272       .  A
O502       Ni525   1.903       .  S
O503        H526   0.966       .  S
O503       Ni519   1.914       .  S
C504        O521   1.272   1_455  A
C504        O513   1.276       .  A
C504        C841   1.479       .  S
O505       Ni524   1.939       .  S
O505        C511   1.273       .  A
O506       Ni524   1.911       .  S
O506        C508   1.270       .  A
Ni507       O510   1.928       .  S
Ni507       O512   1.909       .  S
C508        O518   1.273   1_455  A
C508        C788   1.496       .  S
O509       Ni525   1.905   1_554  S
O509        C515   1.270   1_454  A
O510        C515   1.274       .  A
O512        C514   1.270       .  A
O513       Ni524   1.929       .  S
C514        O520   1.275   1_655  A
C514        C778   1.490       .  S
C515        C851   1.486       .  S
H516        O517   0.966       .  S
O517       Ni525   1.906       .  S
O518       Ni519   1.929       .  S
Ni519       O523   1.902       .  S
Ni519       O521   1.908       .  S
O520       Ni525   1.934       .  S
C522        C758   1.478       .  S
O527       Ni533   1.928       .  S
O527        C548   1.271       .  A
O528       Ni551   1.905       .  S
O528        C537   1.268       .  A
O529        H552   0.966       .  S
O529       Ni533   1.925       .  S
O529       Ni551   1.913   1_655  S
O529       Ni545   1.924       .  S
C530        O547   1.268   1_455  A
C530        O539   1.273       .  A
C530        C801   1.481       .  S
O531       Ni550   1.929       .  S
O531        C537   1.272       .  A
O532       Ni550   1.901       .  S
O532        C534   1.269       .  A
Ni533       O536   1.934       .  S
Ni533       O538   1.908       .  S
C534        O544   1.278   1_455  A
C534        C781   1.486       .  S
O535       Ni551   1.905       .  S
O535        C541   1.267   1_455  A
O536        C541   1.272       .  A
C537        C748   1.493       .  S
O538        C540   1.272       .  A
O539       Ni550   1.934       .  S
C540        O546   1.279   1_655  A
C540        C791   1.495       .  S
C541        C808   1.488       .  S
H542        O543   0.966       .  S
O543       Ni551   1.910       .  S
O543       Ni545   1.905   1_455  S
O543       Ni550   1.922       .  S
O544       Ni545   1.949       .  S
Ni545       O549   1.900       .  S
Ni545       O547   1.906       .  S
O546       Ni551   1.946       .  S
C548        O549   1.266       .  A
C548        C738   1.473       .  S
O553       Ni559   1.932       .  S
O553        C574   1.272       .  A
O554       Ni577   1.902       .  S
O555        H578   0.966       .  S
O555       Ni571   1.910   1_565  S
C556        O573   1.272       .  A
C556        O565   1.274       .  A
C556        C708   1.478       .  S
O557       Ni576   1.934       .  S
O557        C563   1.272       .  A
O558       Ni576   1.908       .  S
O558        C560   1.270       .  A
Ni559       O562   1.929       .  S
Ni559       O564   1.903       .  S
C560        O570   1.270       .  A
C560        C728   1.479       .  S
O561       Ni577   1.905   1_554  S
O561        C567   1.271   1_554  A
O562        C567   1.275       .  A
O564        C566   1.268       .  A
O565       Ni576   1.926       .  S
C566        O572   1.271       .  A
C566        C721   1.482       .  S
C567        C701   1.490       .  S
H568        O569   0.966       .  S
O569       Ni577   1.910   1_545  S
O570       Ni571   1.917       .  S
Ni571       O575   1.902       .  S
Ni571       O573   1.909       .  S
O572       Ni577   1.925       .  S
C574        C868   1.487       .  S
O579       Ni585   1.933       .  S
O579        C600   1.272       .  A
O580       Ni603   1.898       .  S
O580        C589   1.265   1_565  A
O581        H604   0.966       .  S
O581       Ni585   1.917       .  S
O581       Ni603   1.905       .  S
O581       Ni597   1.908   1_565  S
C582        O599   1.272       .  A
C582        O591   1.275       .  A
C582        C688   1.473       .  S
O583       Ni602   1.934       .  S
O583        C589   1.272       .  A
O584       Ni602   1.908       .  S
O584        C586   1.269       .  A
Ni585       O588   1.928       .  S
Ni585       O590   1.906       .  S
C586        O596   1.270       .  A
C586        C718   1.479       .  S
O587       Ni603   1.911       .  S
O587        C593   1.273       .  A
O588        C593   1.276       .  A
C589        C821   1.489       .  S
O590        C592   1.269       .  A
O591       Ni602   1.926       .  S
C592        O598   1.270       .  A
C592        C731   1.479       .  S
C593        C678   1.490       .  S
H594        O595   0.966       .  S
O595       Ni603   1.910   1_545  S
O595       Ni597   1.910       .  S
O595       Ni602   1.918       .  S
O596       Ni597   1.916       .  S
Ni597       O601   1.900       .  S
Ni597       O599   1.909       .  S
O598       Ni603   1.919       .  S
C600        O601   1.266   1_565  A
C600        C828   1.488       .  S
O605       Ni611   1.939       .  S
O605        C626   1.273       .  A
O606       Ni629   1.901       .  S
O607        H630   0.966       .  S
O607       Ni623   1.908       .  S
C608        O625   1.271       .  A
C608        O617   1.273       .  A
C608        C698   1.489       .  S
O609       Ni628   1.932       .  S
O609        C615   1.272       .  A
O610       Ni628   1.906       .  S
O610        C612   1.270       .  A
Ni611       O614   1.930       .  S
Ni611       O616   1.909       .  S
C612        O622   1.272       .  A
C612        C668   1.479       .  S
O613       Ni629   1.904   1_554  S
O613        C619   1.270   1_554  A
O614        C619   1.275       .  A
O616        C618   1.270       .  A
O617       Ni628   1.924       .  S
C618        O624   1.271       .  A
C618        C658   1.485       .  S
C619        C711   1.475       .  S
H620        O621   0.966       .  S
O621       Ni629   1.912       .  S
O622       Ni623   1.926       .  S
Ni623       O627   1.903       .  S
Ni623       O625   1.907       .  S
O624       Ni629   1.923       .  S
C626        C771   1.494       .  S
O631       Ni637   1.935       .  S
O631        C652   1.272       .  A
O632       Ni655   1.899       .  S
O632        C641   1.265       .  A
O633        H656   0.966       .  S
O633       Ni637   1.921       .  S
O633       Ni655   1.908       .  S
O633       Ni649   1.907       .  S
C634        O651   1.270       .  A
C634        O643   1.274       .  A
C634        C681   1.487       .  S
O635       Ni654   1.933       .  S
O635        C641   1.272       .  A
O636       Ni654   1.907       .  S
O636        C638   1.270       .  A
Ni637       O640   1.925       .  S
Ni637       O642   1.910       .  S
C638        O648   1.273       .  A
C638        C661   1.483       .  S
O639       Ni655   1.908       .  S
O639        C645   1.271       .  A
O640        C645   1.274       .  A
C641        C741   1.470       .  S
O642        C644   1.270       .  A
O643       Ni654   1.929       .  S
C644        O650   1.271       .  A
C644        C671   1.481       .  S
C645        C691   1.473       .  S
H646        O647   0.966       .  S
O647       Ni655   1.916       .  S
O647       Ni649   1.912       .  S
O647       Ni654   1.921       .  S
O648       Ni649   1.929       .  S
Ni649       O653   1.902       .  S
Ni649       O651   1.907       .  S
O650       Ni655   1.920       .  S
C652        O653   1.266       .  A
C652        C751   1.491       .  S
C657        C658   1.410       .  A
C657        C662   1.398       .  A
C657        F664   1.358       .  S
C658        C659   1.409       .  A
C659        C660   1.399       .  A
C659        F666   1.358       .  S
C660        C661   1.409       .  A
C660        F665   1.358       .  S
C661        C662   1.408       .  A
C662        F663   1.358       .  S
C667        C668   1.406       .  A
C667        C672   1.397       .  A
C667        F674   1.358       .  S
C668        C669   1.407       .  A
C669        C670   1.399       .  A
C669        F676   1.358       .  S
C670        C671   1.408       .  A
C670        F675   1.358       .  S
C671        C672   1.409       .  A
C672        F673   1.358       .  S
C677        C678   1.409       .  A
C677        C682   1.398       .  A
C677        F684   1.356       .  S
C678        C679   1.411       .  A
C679        C680   1.399       .  A
C679        F686   1.358       .  S
C680        C681   1.408       .  A
C680        F685   1.356       .  S
C681        C682   1.409       .  A
C682        F683   1.358       .  S
C687        C688   1.405       .  A
C687        C692   1.399       .  A
C687        F694   1.358       .  S
C688        C689   1.405       .  A
C689        C690   1.399       .  A
C689        F696   1.357       .  S
C690        C691   1.405       .  A
C690        F695   1.358       .  S
C691        C692   1.406       .  A
C692        F693   1.358       .  S
C697        C698   1.411       .  A
C697        C702   1.397       .  A
C697        F704   1.358       .  S
C699        C700   1.399       .  A
C699        F706   1.358       .  S
C700        C701   1.412       .  A
C700        F705   1.358       .  S
C702        F703   1.358       .  S
C707        C712   1.399       .  A
C707        F714   1.358       .  S
C708        C709   1.406       .  A
C709        C710   1.397       .  A
C709        F716   1.354       .  S
C710        F715   1.358       .  S
C711        C712   1.407       .  A
C712        F713   1.357       .  S
C717        C718   1.408       .  A
C717        C722   1.396       .  A
C717        F724   1.358       .  S
C718        C719   1.407       .  A
C719        C720   1.398   1_545  A
C719        F726   1.358       .  S
C720        C721   1.410       .  A
C720        F725   1.358       .  S
C721        C722   1.408   1_565  A
C722        F723   1.358   1_545  S
C727        C728   1.407       .  A
C727        C732   1.397       .  A
C727        F734   1.358       .  S
C728        C729   1.409   1_545  A
C729        C730   1.397       .  A
C729        F736   1.358       .  S
C730        C731   1.407       .  A
C730        F735   1.358       .  S
C731        C732   1.408   1_565  A
C732        F733   1.358       .  S
C737        C738   1.406       .  A
C737        C742   1.400       .  A
C737        F744   1.358       .  S
C738        C739   1.406       .  A
C739        C740   1.400       .  A
C739        F746   1.358       .  S
C740        C741   1.404       .  A
C740        F745   1.358       .  S
C741        C742   1.404       .  A
C742        F743   1.358       .  S
C747        C748   1.412       .  A
C747        C752   1.397       .  A
C747        F754   1.358       .  S
C748        C749   1.410       .  A
C749        C750   1.401       .  A
C749        F756   1.357       .  S
C750        C751   1.411       .  A
C750        F755   1.358       .  S
C751        C752   1.409       .  A
C752        F753   1.357       .  S
C757        C758   1.405       .  A
C757        C762   1.399       .  A
C757        F764   1.356       .  S
C759        C760   1.399       .  A
C759        F766   1.358       .  S
C760        F765   1.357       .  S
C761        C762   1.406   1_554  A
C762        F763   1.358       .  S
C767        C772   1.401       .  A
C767        F774   1.358       .  S
C768        C769   1.411   1_554  A
C769        C770   1.401       .  A
C769        F776   1.358       .  S
C770        C771   1.411       .  A
C770        F775   1.358       .  S
C772        F773   1.358       .  S
C777        C778   1.412       .  A
C777        C782   1.402       .  A
C777        F784   1.358       .  S
C778        C779   1.409   1_655  A
C779        C780   1.400       .  A
C779        F786   1.358       .  S
C780        C781   1.409       .  A
C780        F785   1.358       .  S
C781        C782   1.407   1_455  A
C782        F783   1.358       .  S
C787        C788   1.412       .  A
C787        C792   1.401       .  A
C787        F794   1.358       .  S
C788        C789   1.412   1_455  A
C789        C790   1.400       .  A
C789        F796   1.358       .  S
C790        C791   1.411       .  A
C790        F795   1.358       .  S
C791        C792   1.411   1_655  A
C792        F793   1.358       .  S
C797        C798   1.407   1_455  A
C797        C802   1.399       .  A
C797        F804   1.358       .  S
C798        C799   1.408       .  A
C799        C800   1.400       .  A
C799        F806   1.358       .  S
C800        C801   1.407   1_655  A
C800        F805   1.358       .  S
C801        C802   1.408       .  A
C802        F803   1.358       .  S
C807        C808   1.409       .  A
C807        C812   1.400       .  A
C807        F814   1.358       .  S
C808        C809   1.407   1_655  A
C809        C810   1.400       .  A
C809        F816   1.357       .  S
C810        C811   1.413       .  A
C810        F815   1.358       .  S
C811        C812   1.411   1_455  A
C812        F813   1.357       .  S
C817        C818   1.411       .  A
C817        C822   1.396       .  A
C817        F824   1.358       .  S
C818        C819   1.411   1_565  A
C819        C820   1.399       .  A
C819        F826   1.358       .  S
C820        C821   1.410       .  A
C820        F825   1.358       .  S
C821        C822   1.409   1_545  A
C822        F823   1.357       .  S
C827        C828   1.409   1_545  A
C827        C832   1.397       .  A
C827        F834   1.357       .  S
C828        C829   1.410       .  A
C829        C830   1.398       .  A
C829        F836   1.358       .  S
C830        C831   1.410   1_565  A
C830        F835   1.358       .  S
C831        C832   1.411       .  A
C832        F833   1.358       .  S
C837        C842   1.400       .  A
C837        F844   1.358       .  S
C838        C839   1.406   1_655  A
C839        C840   1.398       .  A
C839        F846   1.353       .  S
C840        F845   1.358       .  S
C841        C842   1.407   1_455  A
C842        F843   1.357       .  S
C847        C848   1.410       .  A
C847        C852   1.399       .  A
C847        F854   1.358       .  S
C849        C850   1.398       .  A
C849        F856   1.358       .  S
C850        C851   1.409       .  A
C850        F855   1.358       .  S
C852        F853   1.358       .  S
C857        C862   1.399       .  A
C857        F864   1.358       .  S
C858        C859   1.409   1_566  A
C859        C860   1.399       .  A
C859        F866   1.358       .  S
C860        C861   1.410       .  A
C860        F865   1.358       .  S
C862        F863   1.358       .  S
C867        C872   1.397       .  A
C867        F874   1.358       .  S
C868        C869   1.408   1_566  A
C869        C870   1.398       .  A
C869        F876   1.353       .  S
C870        F875   1.358       .  S
C871        C872   1.407   1_545  A
C872        F873   1.352       .  S
C877        C878   1.408       .  A
C877        C882   1.399       .  A
C877        F884   1.358       .  S
C878        C879   1.409   1_665  A
C879        C880   1.398       .  A
C879        F886   1.358       .  S
C880        C881   1.407       .  A
C880        F885   1.358       .  S
C881        C882   1.408   1_445  A
C882        F883   1.358       .  S
C887        C888   1.407   1_655  A
C887        C892   1.398       .  A
C887        F894   1.358       .  S
C888        C889   1.408       .  A
C889        C890   1.399   1_545  A
C889        F896   1.358   1_545  S
C890        C891   1.410   1_455  A
C890        F895   1.358       .  S
C891        C892   1.410   1_565  A
C892        F893   1.358       .  S
