geometry optimzed in LAMMPS
_audit_creation_date              2020-11-30 
_audit_creation_method            'lammps2cif' 
_symmetry_space_group_name_H-M    'P1' 
_symmetry_Int_Tables_number       1 
_symmetry_cell_setting            triclinic 
loop_ 
_symmetry_equiv_pos_as_xyz 
  x,y,z 
_cell_length_a                    29.0607545 
_cell_length_b                    29.162847106036274 
_cell_length_c                    39.328427059778676 
_cell_angle_alpha                 89.94573929636985 
_cell_angle_beta                  89.67497524736204 
_cell_angle_gamma                 89.97513572456467 
loop_ 
_atom_site_label 
_atom_site_type_symbol 
_atom_site_fract_x 
_atom_site_fract_y 
_atom_site_fract_z 
_atom_site_charge 
O1          O  0.49813244  0.36926348  0.44040726    -0.86800
O2          O  0.51549574  0.62752246  0.44084121    -0.86900
O3          O  0.42943608  0.50069078  0.39505524    -0.88600
O4          O  0.58514162  0.49773996  0.39853222    -0.87300
O5          O  0.63559916  0.49328884  0.44319178    -0.86900
O6          O  0.37508283  0.50940296  0.43732202    -0.88300
O7          O  0.51009043  0.57631351  0.39673239    -0.86800
O8          O  0.50585028  0.42048915  0.39649588    -0.86400
Zr9        Zr  0.50617238  0.49846453  0.42301094     2.84300
O10         O  0.55422256  0.54018461  0.46010389    -1.08300
O11         O  0.45508265  0.45657501  0.45792612    -1.09100
C12         C  0.50235619  0.37899878  0.40863810     1.06400
C13         C  0.51379982  0.61767999  0.40892662     1.06300
C14         C  0.38726636  0.50588541  0.40576290     1.09300
C15         C  0.62636392  0.49636305  0.41124468     1.07100
H16         H  0.44516814  0.56885428  0.44464857     0.32600
O17         O  0.46272732  0.54773316  0.45847126    -1.29300
H18         H  0.56658797  0.42876970  0.44662584     0.32300
O19         O  0.54757630  0.44942038  0.45967206    -1.31000
O20         O  0.50535590  0.62748212  0.54916574    -0.86700
O21         O  0.48858326  0.36842767  0.54719012    -0.88200
O22         O  0.38105933  0.58291295  0.49483656    -0.86800
O23         O  0.63889542  0.56120482  0.49909453    -0.86900
O24         O  0.62677481  0.41477241  0.49916921    -0.86600
O25         O  0.36800473  0.43497128  0.49105570    -0.86400
O26         O  0.42158199  0.50129553  0.59151996    -0.86800
O27         O  0.57787403  0.49609133  0.59394232    -0.86200
O28         O  0.37101964  0.50792328  0.54703371    -0.87300
O29         O  0.63176036  0.48872507  0.55124491    -0.86400
O30         O  0.44132091  0.63337013  0.49560904    -0.86800
O31         O  0.41952663  0.37565633  0.49163178    -0.86600
O32         O  0.56695448  0.36388534  0.49870547    -0.86200
O33         O  0.58842410  0.62133233  0.49836255    -0.86600
O34         O  0.49977820  0.57509917  0.59274135    -0.86900
O35         O  0.49365625  0.41921458  0.59158812    -0.88300
Zr36       Zr  0.51117423  0.58860812  0.49499810     2.83100
Zr37       Zr  0.49637035  0.40840214  0.49407741     2.83500
Zr38       Zr  0.41204375  0.50568689  0.49275205     2.84100
Zr39       Zr  0.59416367  0.49129169  0.49658801     2.83400
Zr40       Zr  0.50042063  0.49763287  0.56629977     2.84200
O41         O  0.54412759  0.44884973  0.53095184    -1.08800
O42         O  0.46032715  0.54656555  0.52899898    -1.08300
C43         C  0.50100021  0.61672482  0.58082127     1.06300
C44         C  0.48864619  0.37812576  0.57909070     1.08900
C45         C  0.39810569  0.62371551  0.49596746     1.06500
C46         C  0.62944883  0.60435195  0.50001754     1.06900
C47         C  0.61015528  0.37380367  0.50050478     1.06400
C48         C  0.37822721  0.39191837  0.49105851     1.06000
C49         C  0.38028824  0.50533328  0.57911676     1.06400
C50         C  0.62005894  0.49199067  0.58281330     1.05900
H51         H  0.43091280  0.43840026  0.54182001     0.32600
O52         O  0.45250620  0.45653851  0.52881715    -1.29900
H53         H  0.57128453  0.55835788  0.54572169     0.32600
O54         O  0.55131393  0.54021502  0.53154599    -1.31300
N55         N  0.93444640  0.98912625  0.55329605    -0.36900
N56         N  0.99718811  0.06627604  0.54520475    -0.57400
N57         N  0.07493414  0.00511304  0.54273511    -0.36900
N58         N  0.01248545  0.92806856  0.54794301    -0.57400
C59         C  0.90515829  0.02322980  0.54466621     0.26700
C60         C  0.91349105  0.94897410  0.54578819     0.26700
C61         C  0.09437280  0.04443576  0.53164023     0.26700
C62         C  0.10241477  0.97046111  0.53244039     0.26700
C63         C  0.95810367  0.08846985  0.55383957     0.35300
C64         C  0.03172181  0.09677443  0.54904602     0.35300
C65         C  0.97957502  0.89759058  0.55665158     0.35300
C66         C  0.05303257  0.90616888  0.55153851     0.35300
C67         C  0.86483222  0.00460379  0.53207113    -0.22200
C68         C  0.87013303  0.95770769  0.53269112    -0.22200
C69         C  0.13488691  0.03470233  0.51422718    -0.22200
C70         C  0.14001550  0.98786684  0.51479226    -0.22200
C71         C  0.96783703  0.13305873  0.56359804    -0.23200
C72         C  0.01465086  0.13828244  0.56067513    -0.23200
C73         C  0.99931773  0.85639939  0.56646942    -0.23200
C74         C  0.04601695  0.86182862  0.56314962    -0.23200
C75         C  0.91360125  0.07060592  0.54889294    -0.18600
C76         C  0.93223003  0.90477870  0.55129612    -0.18600
C77         C  0.09548209  0.92385752  0.54027625    -0.18600
C78         C  0.07749027  0.08880084  0.53859065    -0.18600
H79         H  0.83486182  0.02287740  0.52304928     0.14300
H80         H  0.84502394  0.93294662  0.52413324     0.14300
H81         H  0.15844735  0.05876621  0.50246923     0.14300
H82         H  0.16832378  0.96886198  0.50365473     0.14300
H83         H  0.94358500  0.15932802  0.57123646     0.12600
H84         H  0.03378828  0.16935962  0.56567121     0.12600
H85         H  0.98183572  0.82522711  0.57403873     0.12600
H86         H  0.07175663  0.83569692  0.56761086     0.12600
H87         H  0.96528881  0.99301701  0.56632253     0.25900
H88         H  0.04729673  0.00241844  0.55955841     0.25900
O89         O  0.01101157  0.87580011  0.93967946    -0.86800
O90         O  0.97654729  0.13369609  0.94245730    -0.86900
O91         O  0.91388836  0.99913893  0.89887662    -0.88600
O92         O  0.06959962  0.01347594  0.89474781    -0.87300
O93         O  0.12293029  0.02416110  0.93696891    -0.86900
O94         O  0.86352268  0.98807594  0.94339496    -0.88300
O95         O  0.98599343  0.08332871  0.89804028    -0.86800
O96         O  0.99734322  0.92743117  0.89670963    -0.86400
Zr97       Zr  0.99301032  0.00511956  0.92322450     2.84300
O98         O  0.03399758  0.05598976  0.95860376    -1.08300
O99         O  0.95580605  0.95291949  0.96004003    -1.09100
C100        C  0.00498631  0.88620691  0.90820133     1.06400
C101        C  0.97935453  0.12420106  0.91048733     1.06300
C102        C  0.87272614  0.99245321  0.91133231     1.09300
C103        C  0.11127699  0.02109102  0.90546253     1.07100
H104        H  0.92053869  0.06075642  0.94834224     0.32600
O105        O  0.94295872  0.04345890  0.96112691    -1.29300
H106        H  0.06783134  0.94926304  0.94304701     0.32300
O107        O  0.04665401  0.96575850  0.95745792    -1.31000
O108        O  0.98100301  0.13021084  0.05105515    -0.86700
O109        O  0.01803419  0.87394595  0.04713171    -0.88200
O110        O  0.85820802  0.05995963  0.99997216    -0.86800
O111        O  0.11482428  0.09564922  0.99284751    -0.86900
O112        O  0.13589733  0.94940693  0.98975123    -0.86600
O113        O  0.87887288  0.91185691  0.99624166    -0.86400
O114        O  0.92283553  0.99983618  0.09419297    -0.86800
O115        O  0.07873543  0.00689970  0.09051380    -0.86200
O116        O  0.86882159  0.98861170  0.05248049    -0.87300
O117        O  0.12847394  0.01622020  0.04552377    -0.86400
O118        O  0.90614496  0.12224935  0.99919053    -0.86800
O119        O  0.94203134  0.86497773  0.99469443    -0.86600
O120        O  0.08833730  0.88694930  0.99072739    -0.86200
O121        O  0.05161551  0.14230634  0.99477885    -0.86600
O122        O  0.99392174  0.07830334  0.09389013    -0.86900
O123        O  0.00743733  0.92399160  0.09151375    -0.88300
Zr124      Zr  0.98413290  0.09343050  0.99603731     2.83100
Zr125      Zr  0.00928403  0.91422962  0.99380607     2.83500
Zr126      Zr  0.90552629  0.99109154  0.99690207     2.84100
Zr127      Zr  0.08696837  0.01675617  0.99229896     2.83400
Zr128      Zr  0.99975938  0.00209006  0.06615172     2.84200
O129        O  0.05016583  0.96441820  0.02833839    -1.08800
O130        O  0.94661961  0.04135691  0.03160258    -1.08300
C131        C  0.98628295  0.11953373  0.08260919     1.06300
C132        C  0.01480711  0.88321208  0.07909523     1.08900
C133        C  0.86600438  0.10354507  0.00029144     1.06500
C134        C  0.09543132  0.13551023  0.99368728     1.06900
C135        C  0.12848523  0.90581912  0.98942755     1.06400
C136        C  0.89822138  0.87197498  0.99533963     1.06000
C137        C  0.88076433  0.99432016  0.08377040     1.06400
C138        C  0.11983743  0.01175789  0.07757299     1.05900
H139        H  0.94205913  0.92933398  0.04480085     0.32600
O140        O  0.95830379  0.95141117  0.03091750    -1.29900
H141        H  0.05506727  0.07617260  0.04327123     0.32600
O142        O  0.03758887  0.05475171  0.02986087    -1.31300
N143        N  0.48176559  0.43544288  0.00090565    -0.36900
N144        N  0.56526730  0.48942765  0.00387832    -0.57400
N145        N  0.51080661  0.57226439  0.99650342    -0.36900
N146        N  0.42713899  0.51848086  0.99761795    -0.57400
C147        C  0.51231493  0.40351271  0.01131071     0.26700
C148        C  0.43932224  0.41884879  0.00767783     0.26700
C149        C  0.55235139  0.59012283  0.00414114     0.26700
C150        C  0.47924060  0.60563129  0.00165410     0.26700
C151        C  0.58373790  0.44731099  0.99978403     0.35300
C152        C  0.59926689  0.51959801  0.99698698     0.35300
C153        C  0.39392135  0.48735428  0.99131294     0.35300
C154        C  0.40914965  0.55981356  0.98980957     0.35300
C155        C  0.48911753  0.36617163  0.02488689    -0.22200
C156        C  0.44288739  0.37587903  0.02259477    -0.22200
C157        C  0.54722137  0.63545541  0.01411833    -0.22200
C158        C  0.50096373  0.64524518  0.01258783    -0.22200
C159        C  0.62974830  0.45069984  0.99065102    -0.23200
C160        C  0.63960143  0.49662729  0.98885510    -0.23200
C161        C  0.35456411  0.50896014  0.97964031    -0.23200
C162        C  0.36416677  0.55499290  0.97882292    -0.23200
C163        C  0.56029195  0.40594473  0.00634793    -0.18600
C164        C  0.39762573  0.44015797  0.99844312    -0.18600
C165        C  0.43184645  0.60202566  0.99456198    -0.18600
C166        C  0.59495385  0.56753812  0.99983792    -0.18600
H167        H  0.50396658  0.33498618  0.03497688     0.14300
H168        H  0.41504926  0.35364882  0.03062340     0.14300
H169        H  0.57408652  0.65915031  0.02136823     0.14300
H170        H  0.48519417  0.67795713  0.01842802     0.14300
H171        H  0.65375253  0.42299835  0.98596804     0.12600
H172        H  0.67270518  0.51140123  0.98248159     0.12600
H173        H  0.32211761  0.49329463  0.97290788     0.12600
H174        H  0.34062332  0.58184890  0.97125654     0.12600
H175        H  0.48920812  0.46401331  0.98603308     0.25900
H176        H  0.50513607  0.54113020  0.98442094     0.25900
C177        C  0.00564810  0.50120784  0.24288726    -0.02800
C178        C  0.49856999  0.99912592  0.24576917    -0.02800
C179        C  0.99797723  0.50538147  0.74781629    -0.02800
C180        C  0.49345426  0.99782770  0.74220893    -0.02800
C181        C  0.16148039  0.01191540  0.10007599    -0.03600
C182        C  0.15875545  0.00856362  0.13580019    -0.09400
C183        C  0.19916675  0.00778791  0.15562198    -0.17100
C184        C  0.24287039  0.01022894  0.14005784     0.25100
C185        C  0.24559803  0.01404685  0.10471416    -0.18700
C186        C  0.20570734  0.01485154  0.08504266    -0.07600
C187        C  0.28536470  0.00782354  0.15950851    -0.14100
C188        C  0.32252746  0.00526131  0.17350711    -0.13800
C189        C  0.36689131  0.00197713  0.19048542     0.25000
C190        C  0.40831946  0.99876049  0.17196413    -0.19200
C191        C  0.45102084  0.99643553  0.18879090    -0.07700
C192        C  0.45319696  0.99811025  0.22465693    -0.03700
C193        C  0.41083907  0.99917954  0.24272743    -0.09100
C194        C  0.36859082  0.00164403  0.22596035    -0.16700
H195        H  0.12558857  0.00628902  0.14836244     0.11400
H196        H  0.19630422  0.00489376  0.18300857     0.10700
H197        H  0.27883555  0.01599250  0.09216239     0.10700
H198        H  0.20987603  0.01740749  0.05773500     0.11200
H199        H  0.40766062  0.99812359  0.14443619     0.11300
H200        H  0.48187409  0.99327593  0.17354711     0.11200
H201        H  0.41069813  0.99969086  0.27026733     0.11400
H202        H  0.33713858  0.00363273  0.24081238     0.10200
C203        C  0.84182411  0.99575796  0.10863845    -0.03600
C204        C  0.80196059  0.96985399  0.10208916    -0.09400
C205        C  0.76182659  0.97599681  0.12135645    -0.17100
C206        C  0.76020018  0.00842468  0.14752516     0.25100
C207        C  0.80022240  0.03348017  0.15514270    -0.18700
C208        C  0.84087225  0.02703820  0.13591231    -0.07600
C209        C  0.71688431  0.01558863  0.16558984    -0.14100
C210        C  0.67886769  0.01687254  0.17867088    -0.13800
C211        C  0.63344877  0.01243438  0.19422314     0.25000
C212        C  0.62595003  0.97813804  0.21837550    -0.19200
C213        C  0.58271203  0.97251003  0.23360284    -0.07700
C214        C  0.54458536  0.00061891  0.22482947    -0.03700
C215        C  0.55309696  0.03583610  0.20076657    -0.09100
C216        C  0.59669959  0.04125634  0.18535686    -0.16700
H217        H  0.80143679  0.94551722  0.08130353     0.11400
H218        H  0.73152906  0.95607190  0.11522718     0.10700
H219        H  0.79974497  0.05866136  0.17536723     0.10700
H220        H  0.87071281  0.04800438  0.14126673     0.11200
H221        H  0.65397231  0.95591245  0.22597713     0.11300
H222        H  0.58046849  0.94697713  0.25344177     0.11200
H223        H  0.52611184  0.05989226  0.19438453     0.11400
H224        H  0.60184762  0.06836780  0.16688655     0.10200
C225        C  0.00317863  0.54676208  0.22153823    -0.03600
C226        C  0.99087136  0.58829062  0.23809996    -0.09400
C227        C  0.99106697  0.63053859  0.22115055    -0.17100
C228        C  0.00494198  0.63345865  0.18719567     0.25100
C229        C  0.01894717  0.59338000  0.17044573    -0.18700
C230        C  0.01897186  0.55091208  0.18747178    -0.07600
C231        C  0.00742488  0.67795478  0.17046541    -0.14100
C232        C  0.01037153  0.71535864  0.15694719    -0.13800
C233        C  0.01482075  0.75915783  0.13943108     0.25000
C234        C  0.03841602  0.76126790  0.10837787    -0.19200
C235        C  0.04038173  0.80233290  0.08997847    -0.07700
C236        C  0.01868367  0.84252126  0.10210591    -0.03700
C237        C  0.99685083  0.84083796  0.13411797    -0.09100
C238        C  0.99480777  0.79939091  0.15256707    -0.16700
H239        H  0.98186507  0.58881693  0.26471204     0.11400
H240        H  0.98133376  0.66124097  0.23492859     0.10700
H241        H  0.03142916  0.59513567  0.14447232     0.10700
H242        H  0.03426855  0.52223484  0.17427709     0.11200
H243        H  0.05444185  0.73079714  0.09790322     0.11300
H244        H  0.05794505  0.80223284  0.06560881     0.11200
H245        H  0.97963381  0.87088957  0.14415044     0.11400
H246        H  0.97661545  0.79848432  0.17666768     0.10200
C247        C  0.98460637  0.15915382  0.10648274    -0.03600
C248        C  0.00854759  0.15926343  0.13748841    -0.09400
C249        C  0.01258803  0.20002504  0.15643915    -0.17100
C250        C  0.99249946  0.24092806  0.14471956     0.25100
C251        C  0.96700033  0.24035164  0.11472986    -0.18700
C252        C  0.96296609  0.20002775  0.09590393    -0.07600
C253        C  0.99866812  0.28407203  0.16241071    -0.14100
C254        C  0.00232503  0.32164171  0.17528875    -0.13800
C255        C  0.00535047  0.36673755  0.19064603     0.25000
C256        C  0.98906597  0.40566537  0.17367558    -0.19200
C257        C  0.98982267  0.44886768  0.18948145    -0.07700
C258        C  0.00825970  0.45486157  0.22252283    -0.03700
C259        C  0.02285084  0.41429187  0.23937968    -0.09100
C260        C  0.02220698  0.37138522  0.22355304    -0.16700
H261        H  0.02582179  0.12857381  0.14623942     0.11400
H262        H  0.03232407  0.19989497  0.17971699     0.10700
H263        H  0.95103675  0.27146752  0.10538961     0.10700
H264        H  0.94388926  0.20128316  0.07233631     0.11200
H265        H  0.97435255  0.40244910  0.14854258     0.11300
H266        H  0.97316152  0.47672823  0.17629743     0.11200
H267        H  0.03402100  0.41480715  0.26541584     0.11400
H268        H  0.03383381  0.34150267  0.23748067     0.10200
C269        C  0.40421180  0.64449308  0.99259328    -0.03600
C270        C  0.40755990  0.67304909  0.96394936    -0.09400
C271        C  0.37868343  0.71117379  0.96090508    -0.17100
C272        C  0.34660244  0.72096928  0.98659205     0.25100
C273        C  0.34404362  0.69315316  0.01556809    -0.18700
C274        C  0.37270961  0.65500335  0.01856163    -0.07600
C275        C  0.31441861  0.75790513  0.98276090    -0.14100
C276        C  0.28434459  0.78619474  0.98142331    -0.13800
C277        C  0.24558859  0.81667459  0.98213610     0.25000
C278        C  0.25201445  0.86392794  0.98574995    -0.19200
C279        C  0.21394381  0.89306425  0.98815993    -0.07700
C280        C  0.16895791  0.87515611  0.98703031    -0.03700
C281        C  0.16300896  0.82754734  0.98326342    -0.09100
C282        C  0.20109063  0.79857815  0.98081201    -0.16700
H283        H  0.43165245  0.66508737  0.94368424     0.11400
H284        H  0.38073272  0.73240130  0.93832651     0.10700
H285        H  0.31920872  0.70041500  0.03550361     0.10700
H286        H  0.36979414  0.63313406  0.04074607     0.11200
H287        H  0.28638458  0.87818254  0.98702233     0.11300
H288        H  0.21979003  0.92951091  0.99111070     0.11200
H289        H  0.12895262  0.81257709  0.98220294     0.11400
H290        H  0.19581736  0.76196962  0.97819833     0.10200
C291        C  0.63704223  0.59579446  0.99785661    -0.03600
C292        C  0.64514586  0.62302558  0.96905634    -0.09400
C293        C  0.68388006  0.65118205  0.96746271    -0.17100
C294        C  0.71465369  0.65238965  0.99468811     0.25100
C295        C  0.70722761  0.62449826  0.02321011    -0.18700
C296        C  0.66852928  0.59612401  0.02476458    -0.07600
C297        C  0.75171894  0.68485420  0.99427542    -0.14100
C298        C  0.77980760  0.71514287  0.99397690    -0.13800
C299        C  0.80994805  0.75410567  0.99385848     0.25000
C300        C  0.85707812  0.74861699  0.99956332    -0.19200
C301        C  0.88595748  0.78693442  0.00002188    -0.07700
C302        C  0.86787997  0.83123656  0.99490484    -0.03700
C303        C  0.82041946  0.83623253  0.98911255    -0.09100
C304        C  0.79172232  0.79789991  0.98854403    -0.16700
H305        H  0.62113762  0.62283173  0.94808673     0.11400
H306        H  0.68927921  0.67277556  0.94536489     0.10700
H307        H  0.73075512  0.62542601  0.04446838     0.10700
H308        H  0.66259003  0.57514080  0.04710073     0.11200
H309        H  0.87144755  0.71480944  0.00377816     0.11300
H310        H  0.92231204  0.78187202  0.00462642     0.11200
H311        H  0.80541858  0.86973132  0.98484438     0.11400
H312        H  0.75524119  0.80244666  0.98407822     0.10200
C313        C  0.82593160  0.13452445  0.00160321    -0.03600
C314        C  0.82997115  0.18018418  0.99039624    -0.09400
C315        C  0.79189821  0.20934128  0.99116404    -0.17100
C316        C  0.74953667  0.19334753  0.00336416     0.25100
C317        C  0.74520674  0.14806742  0.01466439    -0.18700
C318        C  0.78316866  0.11871445  0.01370253    -0.07600
C319        C  0.71086761  0.22385605  0.00485793    -0.14100
C320        C  0.68020015  0.25150561  0.00622512    -0.13800
C321        C  0.64653650  0.28743258  0.00768330     0.25000
C322        C  0.61783765  0.29557835  0.97984829    -0.19200
C323        C  0.58825301  0.33334182  0.98000554    -0.07700
C324        C  0.58748567  0.36322065  0.00792567    -0.03700
C325        C  0.61538326  0.35428195  0.03613167    -0.09100
C326        C  0.64477294  0.31640580  0.03602617    -0.16700
H327        H  0.86238850  0.19322017  0.98069270     0.11400
H328        H  0.79552433  0.24438089  0.98235031     0.10700
H329        H  0.71256236  0.13550837  0.02429961     0.10700
H330        H  0.77917639  0.08382637  0.02270793     0.11200
H331        H  0.61924107  0.27351164  0.95771783     0.11300
H332        H  0.56711369  0.34019578  0.95797938     0.11200
H333        H  0.61521004  0.37731037  0.05772316     0.11400
H334        H  0.66704829  0.31046684  0.05758756     0.10200
C335        C  0.35577409  0.41157624  0.99652662    -0.03600
C336        C  0.35126160  0.37945903  0.97025985    -0.09400
C337        C  0.31219711  0.35179863  0.96860294    -0.17100
C338        C  0.27751186  0.35595668  0.99324286     0.25100
C339        C  0.28158841  0.38839542  0.01928193    -0.18700
C340        C  0.32063018  0.41624041  0.02088849    -0.07600
C341        C  0.23968546  0.32440644  0.99303947    -0.14100
C342        C  0.21150788  0.29421797  0.99286068    -0.13800
C343        C  0.18208574  0.25473173  0.99278727     0.25000
C344        C  0.13436785  0.25968426  0.99534685    -0.19200
C345        C  0.10616991  0.22089288  0.99567097    -0.07700
C346        C  0.12542322  0.17659922  0.99342203    -0.03700
C347        C  0.17352172  0.17213223  0.99081445    -0.09100
C348        C  0.20159119  0.21097583  0.99048364    -0.16700
H349        H  0.37813984  0.37567802  0.95127006     0.11400
H350        H  0.30942944  0.32657110  0.94850780     0.10700
H351        H  0.25506694  0.39156864  0.03860663     0.10700
H352        H  0.32382830  0.44094965  0.04128253     0.11200
H353        H  0.11897935  0.29344849  0.99717118     0.11300
H354        H  0.06930909  0.22567318  0.99774067     0.11200
H355        H  0.18952808  0.13868214  0.98898910     0.11400
H356        H  0.23857489  0.20687622  0.98850109     0.10200
C357        C  0.53947895  0.99573883  0.76270298    -0.03600
C358        C  0.54234672  0.99375666  0.79853924    -0.09400
C359        C  0.58542084  0.99237977  0.81491080    -0.17100
C360        C  0.62668187  0.99198874  0.79605008     0.25100
C361        C  0.62423178  0.99205594  0.76055675    -0.18700
C362        C  0.58153563  0.99361137  0.74421257    -0.07600
C363        C  0.67143907  0.99138555  0.81288897    -0.14100
C364        C  0.70849000  0.99088353  0.82732835    -0.13800
C365        C  0.75107347  0.98956197  0.84699862     0.25000
C366        C  0.79243094  0.00863991  0.83464844    -0.19200
C367        C  0.83253933  0.00864742  0.85484279    -0.07700
C368        C  0.83195862  0.98984846  0.88790926    -0.03700
C369        C  0.79040831  0.97008041  0.89962754    -0.09100
C370        C  0.75074117  0.96984689  0.87946008    -0.16700
H371        H  0.51171512  0.99283423  0.81417568     0.11400
H372        H  0.58649575  0.99149959  0.84242421     0.10700
H373        H  0.65543929  0.99117183  0.74536909     0.10700
H374        H  0.58119610  0.99397529  0.71667289     0.11200
H375        H  0.79356749  0.02407794  0.80959865     0.11300
H376        H  0.86358197  0.02438334  0.84494061     0.11200
H377        H  0.78831693  0.95491799  0.92473241     0.11400
H378        H  0.71942961  0.95474327  0.88950956     0.10200
C379        C  0.15029853  0.02637417  0.88086349    -0.03600
C380        C  0.18861179  0.05307754  0.89036517    -0.09400
C381        C  0.22913131  0.05309661  0.87097641    -0.17100
C382        C  0.23264762  0.02634756  0.84158425     0.25100
C383        C  0.19400631  0.00113249  0.83094847    -0.18700
C384        C  0.15300198  0.00128208  0.85036758    -0.07600
C385        C  0.27682216  0.02297639  0.82399474    -0.14100
C386        C  0.31490525  0.01938931  0.81122043    -0.13800
C387        C  0.36027140  0.01271470  0.79594989     0.25000
C388        C  0.36721591  0.97692043  0.77294699    -0.19200
C389        C  0.41007093  0.97050044  0.75718888    -0.07700
C390        C  0.44823721  0.99947533  0.76416169    -0.03700
C391        C  0.44043845  0.03566893  0.78747277    -0.09100
C392        C  0.39728570  0.04189671  0.80336791    -0.16700
H393        H  0.18776765  0.07305787  0.91357299     0.11400
H394        H  0.25833542  0.07293607  0.87959995     0.10700
H395        H  0.19602500  0.98021476  0.80824934     0.10700
H396        H  0.12442044  0.98006324  0.84249143     0.11200
H397        H  0.33897912  0.95435871  0.76645931     0.11300
H398        H  0.41182119  0.94383977  0.73820181     0.11200
H399        H  0.46756340  0.06008377  0.79263003     0.11400
H400        H  0.39258306  0.07013690  0.82091342     0.10200
C401        C  0.99041171  0.46237423  0.77123610    -0.03600
C402        C  0.94991844  0.43518732  0.77075815    -0.09400
C403        C  0.94728318  0.39346878  0.78843123    -0.17100
C404        C  0.98395636  0.37843471  0.80842932     0.25100
C405        C  0.02197526  0.40746224  0.81256640    -0.18700
C406        C  0.02471935  0.44928474  0.79478417    -0.07600
C407        C  0.98259451  0.33304931  0.82398877    -0.14100
C408        C  0.98060253  0.29473743  0.83621335    -0.13800
C409        C  0.97714062  0.24969372  0.85215154     0.25000
C410        C  0.94774552  0.24352001  0.88008981    -0.19200
C411        C  0.94674662  0.20166128  0.89755909    -0.07700
C412        C  0.97496983  0.16469032  0.88745537    -0.03700
C413        C  0.00276531  0.17012919  0.85831234    -0.09100
C414        C  0.00398401  0.21243829  0.84089149    -0.16700
H415        H  0.91983605  0.44536002  0.75669810     0.11400
H416        H  0.91665089  0.37256927  0.78606852     0.10700
H417        H  0.05013856  0.39726344  0.82883514     0.10700
H418        H  0.05517463  0.47024535  0.79778462     0.11200
H419        H  0.92647887  0.27158368  0.88906710     0.11300
H420        H  0.92477333  0.19862983  0.91979738     0.11200
H421        H  0.02523510  0.14260813  0.85009803     0.11400
H422        H  0.02683756  0.21646563  0.81924618     0.10200
C423        C  0.00030962  0.54732677  0.77263758    -0.03600
C424        C  0.03987509  0.57520289  0.77628734    -0.09400
C425        C  0.03785397  0.61697663  0.79379937    -0.17100
C426        C  0.99700362  0.63136705  0.80941133     0.25100
C427        C  0.95930499  0.60140203  0.81005434    -0.18700
C428        C  0.96136767  0.55933900  0.79263090    -0.07600
C429        C  0.99419672  0.67716746  0.82388285    -0.14100
C430        C  0.99513105  0.71592977  0.83515015    -0.13800
C431        C  0.00012963  0.76104063  0.85041063     0.25000
C432        C  0.97238416  0.79836037  0.84073479    -0.19200
C433        C  0.97579243  0.84076785  0.85776818    -0.07700
C434        C  0.00685112  0.84614090  0.88477695    -0.03700
C435        C  0.03584260  0.80905677  0.89311990    -0.09100
C436        C  0.03255518  0.76714650  0.87612531    -0.16700
H437        H  0.07258883  0.56575650  0.76524845     0.11400
H438        H  0.06811100  0.63864737  0.79445470     0.10700
H439        H  0.92782109  0.61110648  0.82305740     0.10700
H440        H  0.93108861  0.53770177  0.79251892     0.11200
H441        H  0.94722486  0.79430846  0.82075335     0.11300
H442        H  0.95259439  0.86836973  0.85109003     0.11200
H443        H  0.06017555  0.81199184  0.91378179     0.11400
H444        H  0.05451553  0.73897674  0.88379647     0.10200
C445        C  0.65968279  0.49121750  0.60683421    -0.03600
C446        C  0.66467706  0.52382844  0.63293487    -0.09400
C447        C  0.70689411  0.52813897  0.65029894    -0.17100
C448        C  0.74452495  0.49974415  0.64195885     0.25100
C449        C  0.73879003  0.46600324  0.61706762    -0.18700
C450        C  0.69708952  0.46192973  0.59965648    -0.07600
C451        C  0.78961723  0.50573644  0.65753710    -0.14100
C452        C  0.82826893  0.50893138  0.66913837    -0.13800
C453        C  0.87420945  0.51146727  0.68384554     0.25000
C454        C  0.90480078  0.47436184  0.68148339    -0.19200
C455        C  0.94653863  0.47469628  0.69944445    -0.07700
C456        C  0.95754348  0.51102017  0.72182998    -0.03700
C457        C  0.92954281  0.55080390  0.71976860    -0.09100
C458        C  0.88801958  0.55054356  0.70169923    -0.16700
H459        H  0.63695489  0.54749593  0.63859719     0.11400
H460        H  0.71057382  0.55447971  0.66948753     0.10700
H461        H  0.76714842  0.44361084  0.61029136     0.10700
H462        H  0.69454197  0.43667107  0.57956580     0.11200
H463        H  0.89565024  0.44434169  0.66681148     0.11300
H464        H  0.96835704  0.44461757  0.69829420     0.11200
H465        H  0.93853161  0.58216164  0.73266619     0.11400
H466        H  0.86604716  0.58055044  0.70247839     0.10200
C467        C  0.33923351  0.50657401  0.60251799    -0.03600
C468        C  0.33919431  0.48612086  0.63504137    -0.09400
C469        C  0.29823416  0.48374744  0.65459440    -0.17100
C470        C  0.25675873  0.50215172  0.64211714     0.25100
C471        C  0.25718147  0.52357486  0.61027200    -0.18700
C472        C  0.29764199  0.52575602  0.59079753    -0.07600
C473        C  0.21335967  0.49917548  0.66110116    -0.14100
C474        C  0.17549957  0.49845015  0.67472215    -0.13800
C475        C  0.12969732  0.49851202  0.69047665     0.25000
C476        C  0.10093885  0.53707005  0.68832667    -0.19200
C477        C  0.05789508  0.53779338  0.70498897    -0.07700
C478        C  0.04308131  0.50080731  0.72573775    -0.03700
C479        C  0.07066223  0.46063908  0.72482142    -0.09100
C480        C  0.11346960  0.45986365  0.70796495    -0.16700
H481        H  0.37033159  0.47073360  0.64486253     0.11400
H482        H  0.29882753  0.46704386  0.67919673     0.10700
H483        H  0.22584562  0.53823250  0.60015366     0.10700
H484        H  0.29611106  0.54214539  0.56610825     0.11200
H485        H  0.11205071  0.56699476  0.67416732     0.11300
H486        H  0.03708390  0.56851368  0.70326353     0.11200
H487        H  0.05977344  0.42929602  0.73702477     0.11400
H488        H  0.13414545  0.42897243  0.70885291     0.10200
C489        C  0.48192572  0.33757553  0.60177240    -0.03600
C490        C  0.49929387  0.33554084  0.63503817    -0.09400
C491        C  0.49658064  0.29442653  0.65386626    -0.17100
C492        C  0.47615110  0.25506266  0.63979054     0.25100
C493        C  0.45763398  0.25749511  0.60715307    -0.18700
C494        C  0.46039896  0.29811110  0.58842345    -0.07600
C495        C  0.47557577  0.21148846  0.65776279    -0.14100
C496        C  0.47634068  0.17393714  0.67112778    -0.13800
C497        C  0.48096612  0.12940277  0.68739698     0.25000
C498        C  0.44927393  0.09393822  0.68187038    -0.19200
C499        C  0.45443502  0.05135416  0.69833202    -0.07700
C500        C  0.49174176  0.04282624  0.72051879    -0.03700
C501        C  0.52283088  0.07964496  0.72588738    -0.06300
C502        C  0.51772290  0.12175786  0.70933230    -0.16700
H503        H  0.51629979  0.36503345  0.64596622     0.11400
H504        H  0.51121019  0.29309404  0.67911139     0.10700
H505        H  0.44171461  0.22762451  0.59583134     0.10700
H506        H  0.44617903  0.29828891  0.56301590     0.11200
H507        H  0.42023792  0.09932570  0.66518456     0.11300
H508        H  0.42863908  0.02517175  0.69429164     0.11200
H509        H  0.55052150  0.07745094  0.74397148     0.11400
H510        H  0.54221300  0.14891975  0.71429752     0.10200
C511        C  0.49476960  0.95263303  0.72108882    -0.03600
C512        C  0.49654112  0.95055735  0.68517523    -0.09400
C513        C  0.49838009  0.90802146  0.66827102    -0.17100
C514        C  0.49941962  0.86681297  0.68677731     0.25100
C515        C  0.49882197  0.86849898  0.72223071    -0.18700
C516        C  0.49657848  0.91056397  0.73908497    -0.07600
C517        C  0.50042883  0.82254344  0.66990829    -0.14100
C518        C  0.49991144  0.78475455  0.65701144    -0.13800
C519        C  0.49737566  0.74041330  0.64033957     0.25000
C520        C  0.52280022  0.70250823  0.65200456    -0.19200
C521        C  0.52210537  0.66069084  0.63405761    -0.07700
C522        C  0.49629437  0.65661925  0.60407995    -0.03700
C523        C  0.46958930  0.69426948  0.59346409    -0.09100
C524        C  0.47000690  0.73558407  0.61144006    -0.16700
H525        H  0.49712701  0.98134313  0.66991688     0.11400
H526        H  0.49919950  0.90731802  0.64073664     0.10700
H527        H  0.49983576  0.83712866  0.73699339     0.10700
H528        H  0.49593438  0.91043317  0.76662354     0.11200
H529        H  0.54405017  0.70562046  0.67442081     0.11300
H530        H  0.54337569  0.63248357  0.64258701     0.11200
H531        H  0.44923692  0.69208341  0.57052736     0.11400
H532        H  0.44986747  0.76423560  0.60219424     0.10200
C533        C  0.64310414  0.33562600  0.50553304    -0.03600
C534        C  0.68956918  0.34494526  0.51277048    -0.09400
C535        C  0.72019613  0.30929438  0.51967757    -0.17100
C536        C  0.70501631  0.26380941  0.51938586     0.25100
C537        C  0.65905017  0.25401144  0.51182475    -0.18700
C538        C  0.62822717  0.28967425  0.50496134    -0.07600
C539        C  0.73703472  0.22745073  0.52650438    -0.14100
C540        C  0.76594668  0.19866970  0.53170074    -0.13800
C541        C  0.80265666  0.16615794  0.53628199     0.25000
C542        C  0.80219756  0.13563504  0.56383363    -0.19200
C543        C  0.83822928  0.10427598  0.56800936    -0.07700
C544        C  0.87502520  0.10344874  0.54473397    -0.03700
C545        C  0.87531073  0.13420857  0.51724481    -0.09100
C546        C  0.83931209  0.16537401  0.51305567    -0.16700
H547        H  0.70222151  0.37984360  0.51366822     0.11400
H548        H  0.75572963  0.31724904  0.52542654     0.10700
H549        H  0.64699150  0.21887078  0.51139647     0.10700
H550        H  0.59273771  0.28125807  0.49951057     0.11200
H551        H  0.77407916  0.13609698  0.58203098     0.11300
H552        H  0.83762441  0.08085224  0.58939280     0.11200
H553        H  0.90341722  0.13393573  0.49903300     0.11400
H554        H  0.84006802  0.18888350  0.49170755     0.10200
C555        C  0.10825202  0.12844389  0.53235167    -0.03600
C556        C  0.09659511  0.16149296  0.50786757    -0.09400
C557        C  0.12717546  0.19690391  0.50001642    -0.17100
C558        C  0.16963277  0.19936291  0.51649196     0.25100
C559        C  0.18122679  0.16684000  0.54118781    -0.18700
C560        C  0.15058149  0.13160328  0.54921441    -0.07600
C561        C  0.20178365  0.23480161  0.50790556    -0.14100
C562        C  0.23062246  0.26326599  0.50197283    -0.13800
C563        C  0.26710347  0.29560649  0.49683758     0.25000
C564        C  0.31234609  0.27995110  0.49331474    -0.19200
C565        C  0.34847270  0.31125489  0.49055155    -0.07700
C566        C  0.33972392  0.35872617  0.49135624    -0.03700
C567        C  0.29388417  0.37406283  0.49411348    -0.09100
C568        C  0.25782752  0.34263357  0.49693354    -0.16700
H569        H  0.06425848  0.15925884  0.49440813     0.11400
H570        H  0.11800645  0.22193904  0.48084220     0.10700
H571        H  0.21410258  0.16849815  0.55399256     0.10700
H572        H  0.16014348  0.10626004  0.56805274     0.11200
H573        H  0.31978205  0.24353345  0.49331263     0.11300
H574        H  0.38326295  0.29821763  0.48840059     0.11200
H575        H  0.28588214  0.41031596  0.49485685     0.11400
H576        H  0.22285412  0.35500586  0.49978112     0.10200
C577        C  0.13344098  0.89153518  0.53384617    -0.03600
C578        C  0.17315520  0.89289557  0.55387655    -0.09400
C579        C  0.20926556  0.86266200  0.54725207    -0.17100
C580        C  0.20574505  0.83129465  0.52051330     0.25100
C581        C  0.16614278  0.82976634  0.50053646    -0.18700
C582        C  0.13003023  0.85989896  0.50715827    -0.07600
C583        C  0.24227252  0.79981922  0.51401059    -0.14100
C584        C  0.27136874  0.77148140  0.50908692    -0.13800
C585        C  0.30356629  0.73513732  0.50439570     0.25000
C586        C  0.35058031  0.74310352  0.50854319    -0.19200
C587        C  0.38159686  0.70687383  0.50541773    -0.07700
C588        C  0.36566717  0.66235114  0.49821125    -0.03700
C589        C  0.31827058  0.65491793  0.49393704    -0.09100
C590        C  0.28742598  0.69120635  0.49695854    -0.16700
H591        H  0.17602064  0.91726968  0.57451941     0.11400
H592        H  0.23980382  0.86368664  0.56291204     0.10700
H593        H  0.16321344  0.80532304  0.47992551     0.10700
H594        H  0.09951252  0.85878271  0.49148827     0.11200
H595        H  0.36315748  0.77710969  0.51453664     0.11300
H596        H  0.41786717  0.71364658  0.50908955     0.11200
H597        H  0.30494333  0.62108931  0.48837893     0.11400
H598        H  0.25093741  0.68491764  0.49387059     0.10200
C599        C  0.90184279  0.86405129  0.54806213    -0.03600
C600        C  0.86283190  0.85926019  0.56896314    -0.09400
C601        C  0.83302913  0.82217626  0.56455185    -0.17100
C602        C  0.84211369  0.78939449  0.53939858     0.25100
C603        C  0.88151165  0.79338223  0.51898513    -0.18700
C604        C  0.91117288  0.83060695  0.52321136    -0.07600
C605        C  0.80940289  0.75346819  0.53316592    -0.14100
C606        C  0.77979438  0.72580627  0.52712747    -0.13800
C607        C  0.74241660  0.69539165  0.51931972     0.25000
C608        C  0.75033578  0.64843006  0.51530411    -0.19200
C609        C  0.71376701  0.61902869  0.50800794    -0.07700
C610        C  0.66863166  0.63621664  0.50475960    -0.03700
C611        C  0.66122468  0.68364889  0.50833651    -0.09100
C612        C  0.69790459  0.71297018  0.51560338    -0.16700
H613        H  0.85513324  0.88465744  0.58824988     0.11400
H614        H  0.80247278  0.81950688  0.58033698     0.10700
H615        H  0.88873484  0.76832871  0.49933769     0.10700
H616        H  0.94097777  0.83384175  0.50671524     0.11200
H617        H  0.78468178  0.63448451  0.51805484     0.11300
H618        H  0.72083301  0.58272416  0.50548938     0.11200
H619        H  0.62702609  0.69805539  0.50611470     0.11400
H620        H  0.69148016  0.74934829  0.51859936     0.10200
C621        C  0.34869463  0.50804908  0.38081500    -0.03600
C622        C  0.34564590  0.47771916  0.35305453    -0.09400
C623        C  0.30493569  0.47522597  0.33370852    -0.17100
C624        C  0.26701684  0.50339548  0.34160649     0.25100
C625        C  0.27109695  0.53535402  0.36793436    -0.18700
C626        C  0.31124473  0.53748530  0.38739952    -0.07600
C627        C  0.22313786  0.49889431  0.32415260    -0.14100
C628        C  0.18516230  0.49763610  0.31132293    -0.13800
C629        C  0.13997210  0.49904997  0.29550013     0.25000
C630        C  0.10024117  0.48487184  0.31295724    -0.19200
C631        C  0.05688305  0.48662099  0.29717846    -0.07700
C632        C  0.05163380  0.50393114  0.26363940    -0.03700
C633        C  0.09278227  0.51635771  0.24637120    -0.09100
C634        C  0.13581148  0.51456155  0.26210047    -0.16700
H635        H  0.37367931  0.45439257  0.34746193     0.11400
H636        H  0.30259119  0.45044631  0.31329145     0.10700
H637        H  0.24253665  0.55775255  0.37421733     0.10700
H638        H  0.31255122  0.56145012  0.40839996     0.11200
H639        H  0.10284700  0.47136877  0.33854425     0.11300
H640        H  0.02831712  0.47137538  0.31072732     0.11200
H641        H  0.09237037  0.52665932  0.22004513     0.11400
H642        H  0.16613695  0.52476176  0.24784159     0.10200
C643        C  0.66736418  0.49916488  0.38841156    -0.03600
C644        C  0.70973714  0.51376042  0.40200874    -0.09400
C645        C  0.74953907  0.51498501  0.38202120    -0.17100
C646        C  0.74817969  0.50164195  0.34795739     0.25100
C647        C  0.70618798  0.48737286  0.33388335    -0.18700
C648        C  0.66590301  0.48634810  0.35395185    -0.07600
C649        C  0.79038223  0.50230708  0.32817823    -0.14100
C650        C  0.82735988  0.50306352  0.31380071    -0.13800
C651        C  0.87186963  0.50278443  0.29699347     0.25000
C652        C  0.87553458  0.48760294  0.26351908    -0.19200
C653        C  0.91828338  0.48661079  0.24708647    -0.07700
C654        C  0.95952763  0.49938571  0.26378641    -0.03700
C655        C  0.95448102  0.51712124  0.29718531    -0.09100
C656        C  0.91144251  0.51806224  0.31367460    -0.16700
H657        H  0.71227580  0.52433736  0.42832764     0.11400
H658        H  0.78158302  0.52614546  0.39328796     0.10700
H659        H  0.70463900  0.47678393  0.30752620     0.10700
H660        H  0.63400678  0.47471739  0.34278248     0.11200
H661        H  0.84511681  0.47690586  0.24982809     0.11300
H662        H  0.91826154  0.47641882  0.22079953     0.11200
H663        H  0.98299916  0.53282796  0.31021768     0.11400
H664        H  0.90895295  0.53158829  0.33926584     0.10200
C665        C  0.49625999  0.95337803  0.26647912    -0.03600
C666        C  0.49391867  0.95022873  0.30234211    -0.09400
C667        C  0.49501852  0.90719763  0.31874963    -0.17100
C668        C  0.49714989  0.86638367  0.29980798     0.25100
C669        C  0.49697480  0.86904234  0.26436217    -0.18700
C670        C  0.49625254  0.91164984  0.24801002    -0.07600
C671        C  0.50003447  0.82170763  0.31628044    -0.14100
C672        C  0.50348566  0.78415687  0.32951213    -0.13800
C673        C  0.50884381  0.74086813  0.34755208     0.25000
C674        C  0.49426971  0.69887633  0.33361933    -0.19200
C675        C  0.49758323  0.65787982  0.35259228    -0.07700
C676        C  0.51538804  0.65846601  0.38581902    -0.03700
C677        C  0.53139314  0.70064768  0.39882963    -0.09100
C678        C  0.52805071  0.74114435  0.38001890    -0.16700
H679        H  0.49118509  0.98052239  0.31796150     0.11400
H680        H  0.49430586  0.90580849  0.34627205     0.10700
H681        H  0.49805258  0.83805204  0.24920388     0.10700
H682        H  0.49705728  0.91221865  0.22047750     0.11200
H683        H  0.47947277  0.69795516  0.30841849     0.11300
H684        H  0.48475123  0.62625250  0.34181256     0.11200
H685        H  0.54575207  0.70272835  0.42413527     0.11400
H686        H  0.53976071  0.77300100  0.39118137     0.10200
C687        C  0.50396761  0.33787787  0.38587573    -0.03600
C688        C  0.49377045  0.29437401  0.39996140    -0.09400
C689        C  0.49784223  0.25440356  0.38080372    -0.17100
C690        C  0.51200175  0.25638516  0.34691270     0.25100
C691        C  0.52168474  0.29932965  0.33214225    -0.18700
C692        C  0.51773694  0.33990217  0.35151618    -0.07600
C693        C  0.51549475  0.21383593  0.32798320    -0.14100
C694        C  0.51525224  0.17627589  0.31476101    -0.13800
C695        C  0.51060724  0.13154292  0.29901786     0.25000
C696        C  0.47783535  0.12545653  0.27370922    -0.19200
C697        C  0.47274767  0.08302248  0.25779723    -0.07700
C698        C  0.49971068  0.04432981  0.26712363    -0.03700
C699        C  0.53367114  0.05157348  0.29221161    -0.09100
C700        C  0.53846286  0.09435748  0.30838116    -0.16700
H701        H  0.48283802  0.29080909  0.42619818     0.11400
H702        H  0.48996876  0.22170590  0.39260321     0.10700
H703        H  0.53251933  0.30143905  0.30579579     0.10700
H704        H  0.52611374  0.37251182  0.33985902     0.11200
H705        H  0.45660404  0.15399032  0.26564949     0.11300
H706        H  0.44867054  0.08188307  0.23700252     0.11200
H707        H  0.55721022  0.02426502  0.29885115     0.11400
H708        H  0.56451788  0.09862538  0.32770253     0.10200
loop_ 
_geom_bond_atom_site_label_1 
_geom_bond_atom_site_label_2 
_geom_bond_distance 
_geom_bond_site_symmetry_2 
_ccdc_geom_bond_type 
O1          Zr37   2.401       .  S
O1           C12   1.286       .  A
O2          Zr36   2.415       .  S
O2           C13   1.289       .  A
O3           Zr9   2.493       .  S
O3           C14   1.302       .  A
O4           Zr9   2.484       .  S
O4           C15   1.301       .  A
O5          Zr39   2.415       .  S
O5           C15   1.289       .  A
O6          Zr38   2.438       .  S
O6           C14   1.293       .  A
O7           Zr9   2.496       .  S
O7           C13   1.303       .  A
O8           Zr9   2.503       .  S
O8           C12   1.304       .  A
Zr9          O10   2.364       .  S
Zr9          O11   2.357       .  S
Zr9          O19   2.364       .  S
Zr9          O17   2.363       .  S
O10         Zr36   2.329       .  S
O10         Zr39   2.335       .  S
O11         Zr37   2.334       .  S
O11         Zr38   2.340       .  S
C12         C687   1.498       .  S
C13         C676   1.497       .  S
C14         C621   1.495       .  S
C15         C643   1.490       .  S
H16          O17   0.968       .  S
O17         Zr36   2.344       .  S
O17         Zr38   2.338       .  S
H18          O19   0.963       .  S
O19         Zr37   2.335       .  S
O19         Zr39   2.336       .  S
O20         Zr36   2.419       .  S
O20          C43   1.289       .  A
O21         Zr37   2.401       .  S
O21          C44   1.286       .  A
O22         Zr38   2.426       .  S
O22          C45   1.290       .  A
O23         Zr39   2.421       .  S
O23          C46   1.288       .  A
O24         Zr39   2.426       .  S
O24          C47   1.290       .  A
O25         Zr38   2.429       .  S
O25          C48   1.290       .  A
O26         Zr40   2.494       .  S
O26          C49   1.303       .  A
O27         Zr40   2.506       .  S
O27          C50   1.305       .  A
O28         Zr38   2.440       .  S
O28          C49   1.294       .  A
O29         Zr39   2.418       .  S
O29          C50   1.289       .  A
O30         Zr36   2.413       .  S
O30          C45   1.287       .  A
O31         Zr37   2.432       .  S
O31          C48   1.291       .  A
O32         Zr37   2.435       .  S
O32          C47   1.291       .  A
O33         Zr36   2.444       .  S
O33          C46   1.293       .  A
O34         Zr40   2.488       .  S
O34          C43   1.301       .  A
O35         Zr40   2.500       .  S
O35          C44   1.304       .  A
Zr36         O42   2.335       .  S
Zr36         O54   2.331       .  S
Zr37         O41   2.334       .  S
Zr37         O52   2.333       .  S
Zr38         O42   2.334       .  S
Zr38         O52   2.337       .  S
Zr39         O41   2.334       .  S
Zr39         O54   2.336       .  S
Zr40         O41   2.356       .  S
Zr40         O42   2.358       .  S
Zr40         O54   2.361       .  S
Zr40         O52   2.361       .  S
C43         C522   1.486       .  S
C44         C489   1.493       .  S
C45         C588   1.471       .  S
C46         C610   1.483       .  S
C47         C533   1.482       .  S
C48         C566   1.480       .  S
C49         C467   1.503       .  S
C50         C445   1.494       .  S
H51          O52   0.965       .  S
H53          O54   0.965       .  S
N55          C60   1.354       .  A
N55          C59   1.353   1_565  A
N55          H87   1.041       .  S
N56          C63   1.349       .  A
N56          C64   1.350   1_655  A
N57          C62   1.349   1_545  A
N57          C61   1.350       .  A
N57          H88   1.041       .  S
N58          C65   1.349   1_455  A
N58          C66   1.348       .  A
C59          C67   1.386       .  A
C59          C75   1.413       .  A
C60          C76   1.416       .  A
C60          C68   1.387       .  A
C61          C69   1.388       .  A
C61          C78   1.410       .  A
C62          C77   1.408       .  A
C62          C70   1.387       .  A
C63          C75   1.409       .  A
C63          C71   1.386       .  A
C64          C78   1.409       .  A
C64          C72   1.385       .  A
C65          C73   1.386       .  A
C65          C76   1.409       .  A
C66          C74   1.386       .  A
C66          C77   1.406       .  A
C67          C68   1.376   1_545  A
C67          H79   1.082       .  S
C68          H80   1.082       .  S
C69          C70   1.374   1_545  A
C69          H81   1.082       .  S
C70          H82   1.082       .  S
C71          C72   1.373   1_655  A
C71          H83   1.082       .  S
C72          H84   1.082       .  S
C73          C74   1.372   1_655  A
C73          H85   1.082       .  S
C74          H86   1.083       .  S
C75         C544   1.484       .  S
C76         C599   1.486       .  S
C77         C577   1.472       .  S
C78         C555   1.481       .  S
O89        Zr125   2.407       .  S
O89         C100   1.287       .  A
O90        Zr124   2.422       .  S
O90         C101   1.290       .  A
O91         Zr97   2.502   1_565  S
O91         C102   1.305       .  A
O92         Zr97   2.498   1_455  S
O92         C103   1.304       .  A
O93        Zr127   2.418       .  S
O93         C103   1.290       .  A
O94        Zr126   2.440       .  S
O94         C102   1.294       .  A
O95         Zr97   2.494       .  S
O95         C101   1.303       .  A
O96         Zr97   2.498   1_565  S
O96         C100   1.303   1_655  A
Zr97         O98   2.362   1_655  S
Zr97         O99   2.358   1_545  S
Zr97        O107   2.362   1_645  S
Zr97        O105   2.359       .  S
O98        Zr124   2.332   1_455  S
O98        Zr127   2.335       .  S
O99        Zr125   2.339   1_655  S
O99        Zr126   2.335       .  S
C100        C434   1.489       .  S
C101        C412   1.493       .  S
C102        C368   1.507       .  S
C103        C379   1.494       .  S
H104        O105   0.967       .  S
O105       Zr124   2.338       .  S
O105       Zr126   2.340   1_545  S
H106        O107   0.963       .  S
O107       Zr125   2.337       .  S
O107       Zr127   2.342   1_565  S
O108       Zr124   2.417   1_554  S
O108        C131   1.289       .  A
O109       Zr125   2.417   1_554  S
O109        C132   1.289       .  A
O110       Zr126   2.436   1_545  S
O110        C133   1.291   1_556  A
O111       Zr127   2.439       .  S
O111        C134   1.292       .  A
O112       Zr127   2.426   1_565  S
O112        C135   1.289       .  A
O113       Zr126   2.438       .  S
O113        C136   1.292       .  A
O114       Zr128   2.488   1_565  S
O114        C137   1.302       .  A
O115       Zr128   2.496   1_455  S
O115        C138   1.303       .  A
O116       Zr126   2.428   1_554  S
O116        C137   1.291       .  A
O117       Zr127   2.422   1_554  S
O117        C138   1.290       .  A
O118       Zr124   2.419       .  S
O118        C133   1.288   1_556  A
O119       Zr125   2.426   1_655  S
O119        C136   1.289       .  A
O120       Zr125   2.433       .  S
O120        C135   1.291       .  A
O121       Zr124   2.425   1_455  S
O121        C134   1.289       .  A
O122       Zr128   2.482       .  S
O122        C131   1.301       .  A
O123       Zr128   2.496   1_465  S
O123        C132   1.303       .  A
Zr124       O130   2.330   1_556  S
Zr124       O142   2.340   1_656  S
Zr125       O129   2.328   1_556  S
Zr125       O140   2.341   1_456  S
Zr126       O130   2.337   1_566  S
Zr126       O140   2.345   1_556  S
Zr127       O129   2.337   1_546  S
Zr127       O142   2.334   1_556  S
Zr128       O129   2.354   1_645  S
Zr128       O130   2.358       .  S
Zr128       O142   2.363   1_655  S
Zr128       O140   2.362   1_545  S
C131        C247   1.490       .  S
C132        C236   1.496       .  S
C133        C313   1.474       .  S
C134        C346   1.482       .  S
C135        C280   1.480       .  S
C136        C302   1.480       .  S
C137        C203   1.492       .  S
C138        C181   1.503       .  S
H139        O140   0.965       .  S
H141        O142   0.965       .  S
N143        C148   1.350       .  A
N143        C147   1.351       .  A
N143        H175   1.040   1_554  S
N144        C151   1.350   1_554  A
N144        C152   1.349   1_554  A
N145        C150   1.352   1_556  A
N145        C149   1.351   1_556  A
N145        H176   1.039       .  S
N146        C153   1.350       .  A
N146        C154   1.349       .  A
C147        C155   1.386       .  A
C147        C163   1.409       .  A
C148        C164   1.411   1_554  A
C148        C156   1.387       .  A
C149        C157   1.387       .  A
C149        C166   1.412   1_554  A
C150        C165   1.411   1_554  A
C150        C158   1.387       .  A
C151        C163   1.409   1_556  A
C151        C159   1.386       .  A
C152        C166   1.408       .  A
C152        C160   1.386       .  A
C153        C161   1.386       .  A
C153        C164   1.409       .  A
C154        C162   1.386       .  A
C154        C165   1.410       .  A
C155        C156   1.376       .  A
C155        H167   1.082       .  S
C156        H168   1.082       .  S
C157        C158   1.376       .  A
C157        H169   1.082       .  S
C158        H170   1.082       .  S
C159        C160   1.371       .  A
C159        H171   1.082       .  S
C160        H172   1.082       .  S
C161        C162   1.372       .  A
C161        H173   1.082       .  S
C162        H174   1.082       .  S
C163        C324   1.477       .  S
C164        C335   1.477       .  S
C165        C269   1.478       .  S
C166        C291   1.477       .  S
C177        C225   1.573       .  S
C177        C258   1.573       .  S
C177        C632   1.572       .  S
C177        C654   1.569   1_455  S
C178        C192   1.563       .  S
C178        C214   1.567   1_565  S
C178        C665   1.564       .  S
C178        C698   1.564   1_565  S
C179        C401   1.570       .  S
C179        C423   1.567   1_655  S
C179        C456   1.570       .  S
C179        C478   1.574   1_655  S
C180        C357   1.567       .  S
C180        C390   1.569       .  S
C180        C500   1.565   1_565  S
C180        C511   1.559       .  S
C181        C182   1.410       .  A
C181        C186   1.414       .  A
C182        C183   1.413       .  A
C182        H195   1.083       .  S
C183        C184   1.409       .  A
C183        H196   1.083       .  S
C184        C185   1.396       .  A
C184        C187   1.458       .  S
C185        C186   1.398       .  A
C185        H197   1.084       .  S
C186        H198   1.083       .  S
C187        C188   1.217       .  T
C188        C189   1.458       .  S
C189        C190   1.407   1_545  A
C189        C194   1.396       .  A
C190        C191   1.411       .  A
C190        H199   1.083       .  S
C191        C192   1.413       .  A
C191        H200   1.080       .  S
C192        C193   1.418       .  A
C193        C194   1.399   1_565  A
C193        H201   1.083       .  S
C194        H202   1.083       .  S
C203        C204   1.408       .  A
C203        C208   1.409   1_565  A
C204        C205   1.399       .  A
C204        H217   1.083       .  S
C205        C206   1.399   1_565  A
C205        H218   1.084       .  S
C206        C207   1.408       .  A
C206        C209   1.457       .  S
C207        C208   1.412       .  A
C207        H219   1.083       .  S
C208        H220   1.083       .  S
C209        C210   1.217       .  T
C210        C211   1.457       .  S
C211        C212   1.395   1_545  A
C211        C216   1.404       .  A
C212        C213   1.399       .  A
C212        H221   1.084       .  S
C213        C214   1.422   1_565  A
C213        H222   1.080       .  S
C214        C215   1.417       .  A
C215        C216   1.410       .  A
C215        H223   1.082       .  S
C216        H224   1.083       .  S
C225        C226   1.420   1_455  A
C225        C230   1.419       .  A
C226        C227   1.400       .  A
C226        H239   1.078       .  S
C227        C228   1.395   1_655  A
C227        H240   1.084       .  S
C228        C229   1.401       .  A
C228        C231   1.456       .  S
C229        C230   1.407       .  A
C229        H241   1.083       .  S
C230        H242   1.079       .  S
C231        C232   1.216       .  T
C232        C233   1.456       .  S
C233        C234   1.399       .  A
C233        C238   1.407   1_455  A
C234        C235   1.400       .  A
C234        H243   1.084       .  S
C235        C236   1.413       .  A
C235        H244   1.083       .  S
C236        C237   1.407   1_455  A
C237        C238   1.410       .  A
C237        H245   1.083       .  S
C238        H246   1.083       .  S
C247        C248   1.407   1_655  A
C247        C252   1.411       .  A
C248        C249   1.409       .  A
C248        H261   1.083       .  S
C249        C250   1.406   1_455  A
C249        H262   1.083       .  S
C250        C251   1.397       .  A
C250        C253   1.450       .  S
C251        C252   1.396       .  A
C251        H263   1.084       .  S
C252        H264   1.083       .  S
C253        C254   1.212   1_655  T
C254        C255   1.451       .  S
C255        C256   1.400   1_455  A
C255        C260   1.393       .  A
C256        C257   1.406       .  A
C256        H265   1.083       .  S
C257        C258   1.419   1_655  A
C257        H266   1.079       .  S
C258        C259   1.421       .  A
C259        C260   1.398       .  A
C259        H267   1.076       .  S
C260        H268   1.084       .  S
C269        C270   1.403       .  A
C269        C274   1.402   1_556  A
C270        C271   1.398       .  A
C270        H283   1.083       .  S
C271        C272   1.400       .  A
C271        H284   1.083       .  S
C272        C273   1.400   1_556  A
C272        C275   1.435       .  S
C273        C274   1.395       .  A
C273        H285   1.084       .  S
C274        H286   1.083       .  S
C275        C276   1.203       .  T
C276        C277   1.435       .  S
C277        C278   1.398       .  A
C277        C282   1.398       .  A
C278        C279   1.398       .  A
C278        H287   1.083       .  S
C279        C280   1.409       .  A
C279        H288   1.083       .  S
C280        C281   1.407       .  A
C281        C282   1.395       .  A
C281        H289   1.083       .  S
C282        H290   1.084       .  S
C291        C292   1.402       .  A
C291        C296   1.403   1_556  A
C292        C293   1.395       .  A
C292        H305   1.083       .  S
C293        C294   1.399       .  A
C293        H306   1.083       .  S
C294        C295   1.401   1_556  A
C294        C297   1.434       .  S
C295        C296   1.398       .  A
C295        H307   1.083       .  S
C296        H308   1.083       .  S
C297        C298   1.203       .  T
C298        C299   1.435       .  S
C299        C300   1.398       .  A
C299        C304   1.398       .  A
C300        C301   1.398   1_556  A
C300        H309   1.084   1_556  S
C301        C302   1.409   1_554  A
C301        H310   1.083       .  S
C302        C303   1.407       .  A
C303        C304   1.395       .  A
C303        H311   1.083       .  S
C304        H312   1.084       .  S
C313        C314   1.407   1_554  A
C313        C318   1.406       .  A
C314        C315   1.395       .  A
C314        H327   1.083       .  S
C315        C316   1.399   1_556  A
C315        H328   1.084       .  S
C316        C317   1.398       .  A
C316        C319   1.434       .  S
C317        C318   1.396       .  A
C317        H329   1.083       .  S
C318        H330   1.083       .  S
C319        C320   1.203       .  T
C320        C321   1.434       .  S
C321        C322   1.400   1_554  A
C321        C326   1.400       .  A
C322        C323   1.397       .  A
C322        H331   1.083       .  S
C323        C324   1.402   1_556  A
C323        H332   1.083       .  S
C324        C325   1.402       .  A
C325        C326   1.396       .  A
C325        H333   1.083       .  S
C326        H334   1.083       .  S
C335        C336   1.402       .  A
C335        C340   1.403   1_556  A
C336        C337   1.395       .  A
C336        H349   1.083       .  S
C337        C338   1.400       .  A
C337        H350   1.084       .  S
C338        C339   1.400   1_556  A
C338        C341   1.434       .  S
C339        C340   1.397       .  A
C339        H351   1.083       .  S
C340        H352   1.083       .  S
C341        C342   1.203       .  T
C342        C343   1.435       .  S
C343        C344   1.397       .  A
C343        C348   1.399       .  A
C344        C345   1.397       .  A
C344        H353   1.084       .  S
C345        C346   1.410       .  A
C345        H354   1.083       .  S
C346        C347   1.407       .  A
C347        C348   1.396       .  A
C347        H355   1.083       .  S
C348        H356   1.084       .  S
C357        C358   1.413       .  A
C357        C362   1.420       .  A
C358        C359   1.411       .  A
C358        H371   1.079       .  S
C359        C360   1.406       .  A
C359        H372   1.083       .  S
C360        C361   1.398       .  A
C360        C363   1.463       .  S
C361        C362   1.401       .  A
C361        H373   1.083       .  S
C362        H374   1.083       .  S
C363        C364   1.220       .  T
C364        C365   1.464       .  S
C365        C366   1.408   1_565  A
C365        C370   1.400       .  A
C366        C367   1.414       .  A
C366        H375   1.083       .  S
C367        C368   1.411   1_545  A
C367        H376   1.083       .  S
C368        C369   1.413       .  A
C369        C370   1.403       .  A
C369        H377   1.083       .  S
C370        H378   1.084       .  S
C379        C380   1.411       .  A
C379        C384   1.407       .  A
C380        C381   1.399       .  A
C380        H393   1.083       .  S
C381        C382   1.398       .  A
C381        H394   1.084       .  S
C382        C383   1.408       .  A
C382        C385   1.458       .  S
C383        C384   1.412       .  A
C383        H395   1.083   1_545  S
C384        H396   1.083   1_545  S
C385        C386   1.217       .  T
C386        C387   1.459       .  S
C387        C388   1.396   1_545  A
C387        C392   1.404       .  A
C388        C389   1.401       .  A
C388        H397   1.084       .  S
C389        C390   1.423       .  A
C389        H398   1.080       .  S
C390        C391   1.416   1_565  A
C391        C392   1.410       .  A
C391        H399   1.083       .  S
C392        H400   1.083       .  S
C401        C402   1.419       .  A
C401        C406   1.417   1_655  A
C402        C403   1.403       .  A
C402        H415   1.078       .  S
C403        C404   1.398       .  A
C403        H416   1.084       .  S
C404        C405   1.402   1_655  A
C404        C407   1.458       .  S
C405        C406   1.407       .  A
C405        H417   1.083       .  S
C406        H418   1.083       .  S
C407        C408   1.217       .  T
C408        C409   1.458       .  S
C409        C410   1.399       .  A
C409        C414   1.408   1_655  A
C410        C411   1.400       .  A
C410        H419   1.084       .  S
C411        C412   1.410       .  A
C411        H420   1.084       .  S
C412        C413   1.407   1_655  A
C413        C414   1.411       .  A
C413        H421   1.083       .  S
C414        H422   1.083       .  S
C423        C424   1.416       .  A
C423        C428   1.418   1_455  A
C424        C425   1.401       .  A
C424        H437   1.079       .  S
C425        C426   1.398   1_455  A
C425        H438   1.084       .  S
C426        C427   1.402       .  A
C426        C429   1.454       .  S
C427        C428   1.407       .  A
C427        H439   1.083       .  S
C428        H440   1.083       .  S
C429        C430   1.215       .  T
C430        C431   1.454   1_655  S
C431        C432   1.408   1_455  A
C431        C436   1.398       .  A
C432        C433   1.411       .  A
C432        H441   1.083       .  S
C433        C434   1.407   1_655  A
C433        H442   1.083       .  S
C434        C435   1.410       .  A
C435        C436   1.397       .  A
C435        H443   1.084       .  S
C436        H444   1.084       .  S
C445        C446   1.408       .  A
C445        C450   1.410       .  A
C446        C447   1.413       .  A
C446        H459   1.083       .  S
C447        C448   1.409       .  A
C447        H460   1.083       .  S
C448        C449   1.399       .  A
C448        C451   1.460       .  S
C449        C450   1.400       .  A
C449        H461   1.084       .  S
C450        H462   1.084       .  S
C451        C452   1.218       .  T
C452        C453   1.460       .  S
C453        C454   1.403       .  A
C453        C458   1.399       .  A
C454        C455   1.407       .  A
C454        H463   1.083       .  S
C455        C456   1.416       .  A
C455        H464   1.083       .  S
C456        C457   1.419       .  A
C457        C458   1.404       .  A
C457        H465   1.079       .  S
C458        H466   1.083       .  S
C467        C468   1.411       .  A
C467        C472   1.411       .  A
C468        C469   1.415       .  A
C468        H481   1.083       .  S
C469        C470   1.410       .  A
C469        H482   1.083       .  S
C470        C471   1.399       .  A
C470        C473   1.465       .  S
C471        C472   1.401       .  A
C471        H483   1.083       .  S
C472        H484   1.083       .  S
C473        C474   1.221       .  T
C474        C475   1.465       .  S
C475        C476   1.404       .  A
C475        C480   1.400       .  A
C476        C477   1.409       .  A
C476        H485   1.083       .  S
C477        C478   1.418       .  A
C477        H486   1.083       .  S
C478        C479   1.419       .  A
C479        C480   1.406       .  A
C479        H487   1.079       .  S
C480        H488   1.083       .  S
C489        C490   1.406       .  A
C489        C494   1.413       .  A
C490        C491   1.411       .  A
C490        H503   1.083       .  S
C491        C492   1.408       .  A
C491        H504   1.083       .  S
C492        C493   1.396       .  A
C492        C495   1.454       .  S
C493        C494   1.396       .  A
C493        H505   1.084       .  S
C494        H506   1.083       .  S
C495        C496   1.215       .  T
C496        C497   1.454       .  S
C497        C498   1.403       .  A
C497        C502   1.395       .  A
C498        C499   1.408       .  A
C498        H507   1.083       .  S
C499        C500   1.417       .  A
C499        H508   1.083       .  S
C500        C501   1.420       .  A
C501        C502   1.398       .  A
C501        H509   1.079       .  S
C502        H510   1.084       .  S
C511        C512   1.414       .  A
C511        C516   1.417       .  A
C512        C513   1.409       .  A
C512        H525   1.079       .  S
C513        C514   1.405       .  A
C513        H526   1.083       .  S
C514        C515   1.395       .  A
C514        C517   1.452       .  S
C515        C516   1.396       .  A
C515        H527   1.084       .  S
C516        H528   1.083       .  S
C517        C518   1.214       .  T
C518        C519   1.452       .  S
C519        C520   1.407       .  A
C519        C524   1.398       .  A
C520        C521   1.410       .  A
C520        H529   1.083       .  S
C521        C522   1.406       .  A
C521        H530   1.083       .  S
C522        C523   1.409       .  A
C523        C524   1.398       .  A
C523        H531   1.083       .  S
C524        H532   1.084       .  S
C533        C534   1.408       .  A
C533        C538   1.409       .  A
C534        C535   1.396       .  A
C534        H547   1.083       .  S
C535        C536   1.398       .  A
C535        H548   1.084       .  S
C536        C537   1.400       .  A
C536        C539   1.439       .  S
C537        C538   1.399       .  A
C537        H549   1.083       .  S
C538        H550   1.083       .  S
C539        C540   1.205       .  T
C540        C541   1.439       .  S
C541        C542   1.402       .  A
C541        C546   1.400       .  A
C542        C543   1.400       .  A
C542        H551   1.083       .  S
C543        C544   1.404       .  A
C543        H552   1.083       .  S
C544        C545   1.404       .  A
C545        C546   1.396       .  A
C545        H553   1.083       .  S
C546        H554   1.084       .  S
C555        C556   1.404       .  A
C555        C560   1.404       .  A
C556        C557   1.396       .  A
C556        H569   1.083       .  S
C557        C558   1.399       .  A
C557        H570   1.083       .  S
C558        C559   1.399       .  A
C558        C561   1.432       .  S
C559        C560   1.395       .  A
C559        H571   1.084       .  S
C560        H572   1.083       .  S
C561        C562   1.202       .  T
C562        C563   1.433       .  S
C563        C564   1.398       .  A
C563        C568   1.398       .  A
C564        C565   1.395       .  A
C564        H573   1.084       .  S
C565        C566   1.408       .  A
C565        H574   1.083       .  S
C566        C567   1.409       .  A
C567        C568   1.396       .  A
C567        H575   1.083       .  S
C568        H576   1.084       .  S
C577        C578   1.402       .  A
C577        C582   1.402       .  A
C578        C579   1.394       .  A
C578        H591   1.083       .  S
C579        C580   1.399       .  A
C579        H592   1.084       .  S
C580        C581   1.398       .  A
C580        C583   1.425       .  S
C581        C582   1.392       .  A
C581        H593   1.084       .  S
C582        H594   1.083       .  S
C583        C584   1.197       .  T
C584        C585   1.425       .  S
C585        C586   1.396       .  A
C585        C590   1.396       .  A
C586        C587   1.394       .  A
C586        H595   1.084       .  S
C587        C588   1.408       .  A
C587        H596   1.083       .  S
C588        C589   1.405       .  A
C589        C590   1.391       .  A
C589        H597   1.083       .  S
C590        H598   1.084       .  S
C599        C600   1.403       .  A
C599        C604   1.407       .  A
C600        C601   1.397       .  A
C600        H613   1.083       .  S
C601        C602   1.400       .  A
C601        H614   1.083       .  S
C602        C603   1.399       .  A
C602        C605   1.437       .  S
C603        C604   1.397       .  A
C603        H615   1.084       .  S
C604        H616   1.083       .  S
C605        C606   1.204       .  T
C606        C607   1.437       .  S
C607        C608   1.398       .  A
C607        C612   1.400       .  A
C608        C609   1.397       .  A
C608        H617   1.084       .  S
C609        C610   1.410       .  A
C609        H618   1.083       .  S
C610        C611   1.407       .  A
C611        C612   1.398       .  A
C611        H619   1.083       .  S
C612        H620   1.084       .  S
C621        C622   1.409       .  A
C621        C626   1.409       .  A
C622        C623   1.412       .  A
C622        H635   1.083       .  S
C623        C624   1.408       .  A
C623        H636   1.083       .  S
C624        C625   1.399       .  A
C624        C627   1.458       .  S
C625        C626   1.401       .  A
C625        H637   1.084       .  S
C626        H638   1.083       .  S
C627        C628   1.217       .  T
C628        C629   1.457       .  S
C629        C630   1.402       .  A
C629        C634   1.395       .  A
C630        C631   1.409       .  A
C630        H639   1.083       .  S
C631        C632   1.421       .  A
C631        H640   1.080       .  S
C632        C633   1.419       .  A
C633        C634   1.399       .  A
C633        H641   1.078       .  S
C634        H642   1.083       .  S
C643        C644   1.411       .  A
C643        C648   1.407       .  A
C644        C645   1.395       .  A
C644        H657   1.083       .  S
C645        C646   1.396       .  A
C645        H658   1.084       .  S
C646        C647   1.406       .  A
C646        C649   1.449       .  S
C647        C648   1.409       .  A
C647        H659   1.083       .  S
C648        H660   1.083       .  S
C649        C650   1.212       .  T
C650        C651   1.449       .  S
C651        C652   1.393       .  A
C651        C656   1.400       .  A
C652        C653   1.397       .  A
C652        H661   1.084       .  S
C653        C654   1.420       .  A
C653        H662   1.076       .  S
C654        C655   1.419       .  A
C655        C656   1.406       .  A
C655        H663   1.079       .  S
C656        H664   1.083       .  S
C665        C666   1.415       .  A
C665        C670   1.418       .  A
C666        C667   1.411       .  A
C666        H679   1.079       .  S
C667        C668   1.406       .  A
C667        H680   1.083       .  S
C668        C669   1.396       .  A
C668        C671   1.457       .  S
C669        C670   1.399       .  A
C669        H681   1.083       .  S
C670        H682   1.083       .  S
C671        C672   1.216       .  T
C672        C673   1.456       .  S
C673        C674   1.408       .  A
C673        C678   1.396       .  A
C674        C675   1.412       .  A
C674        H683   1.083       .  S
C675        C676   1.408       .  A
C675        H684   1.083       .  S
C676        C677   1.413       .  A
C677        C678   1.397       .  A
C677        H685   1.083       .  S
C678        H686   1.084       .  S
C687        C688   1.415       .  A
C687        C692   1.408       .  A
C688        C689   1.393       .  A
C688        H701   1.083       .  S
C689        C690   1.394       .  A
C689        H702   1.084       .  S
C690        C691   1.408       .  A
C690        C693   1.451       .  S
C691        C692   1.412       .  A
C691        H703   1.083       .  S
C692        H704   1.083       .  S
C693        C694   1.213       .  T
C694        C695   1.451       .  S
C695        C696   1.393       .  A
C695        C700   1.403       .  A
C696        C697   1.396       .  A
C696        H705   1.084       .  S
C697        C698   1.422       .  A
C697        H706   1.080       .  S
C698        C699   1.416       .  A
C699        C700   1.408       .  A
C699        H707   1.082       .  S
C700        H708   1.083       .  S
