geometry optimzed in LAMMPS
_audit_creation_date              2020-11-30 
_audit_creation_method            'lammps2cif' 
_symmetry_space_group_name_H-M    'P1' 
_symmetry_Int_Tables_number       1 
_symmetry_cell_setting            triclinic 
loop_ 
_symmetry_equiv_pos_as_xyz 
  x,y,z 
_cell_length_a                    37.77405123 
_cell_length_b                    37.79844206317417 
_cell_length_c                    34.034523054322946 
_cell_angle_alpha                 89.99758828597308 
_cell_angle_beta                  90.00165196307867 
_cell_angle_gamma                 89.96399502812397 
loop_ 
_atom_site_label 
_atom_site_type_symbol 
_atom_site_fract_x 
_atom_site_fract_y 
_atom_site_fract_z 
_atom_site_charge 
O1          O  0.47522100  0.04262252  0.40922020    -0.71200
O2          O  0.02495665  0.45731940  0.40921344    -0.71400
O3          O  0.04399450  0.02546367  0.40687180    -0.71300
O4          O  0.45618297  0.47447884  0.40687206    -0.71300
O5          O  0.45739345  0.47519962  0.34294625    -0.71300
O6          O  0.04277708  0.02475343  0.34294602    -0.71300
O7          O  0.02555273  0.45604859  0.34528700    -0.71200
O8          O  0.47461767  0.04390366  0.34529394    -0.71400
V9          V  0.50008876  0.99997122  0.40680783     1.35200
V10         V  0.00008533  0.49997622  0.34535601     1.35200
C11         C  0.46654944  0.05787585  0.37806859     0.78000
C12         C  0.03362421  0.44207081  0.37805956     0.78100
C13         C  0.05798674  0.03349541  0.37409617     0.78000
C14         C  0.44218718  0.46645263  0.37409652     0.77900
O15         O  0.47521855  0.04261811  0.09280491    -0.71200
O16         O  0.02496134  0.45731895  0.09279983    -0.71400
O17         O  0.45618619  0.47447169  0.09514537    -0.71300
O18         O  0.04399372  0.02546486  0.09514924    -0.71300
O19         O  0.04278325  0.02473886  0.15907494    -0.71300
O20         O  0.45739927  0.47518626  0.15907118    -0.71300
O21         O  0.02555745  0.45603511  0.15672614    -0.71200
O22         O  0.47462479  0.04389048  0.15673137    -0.71400
V23         V  0.50008994  0.99996828  0.09521123     1.35200
V24         V  0.00009122  0.49996284  0.15666302     1.35200
C25         C  0.46655228  0.05786743  0.12395884     0.78000
C26         C  0.03362855  0.44206395  0.12395198     0.78100
C27         C  0.44219248  0.46644079  0.12792060     0.78000
C28         C  0.05798883  0.03348979  0.12792568     0.77900
N29         N  0.18672792  0.16672470  0.00102019    -0.36000
N30         N  0.15398668  0.20937348  0.06119120    -0.56600
N31         N  0.11786615  0.25260223  0.00101642    -0.36000
N32         N  0.15398237  0.20937548  0.44084677    -0.56600
C33         C  0.20449028  0.15492750  0.03247504     0.27500
C34         C  0.20448654  0.15492621  0.46956565     0.27500
C35         C  0.12211175  0.27361362  0.03319633     0.27500
C36         C  0.12210978  0.27361619  0.46883638     0.27500
C37         C  0.17140704  0.18545803  0.08378872     0.36200
C38         C  0.13995590  0.23371529  0.08596250     0.36200
C39         C  0.17140062  0.18545968  0.41825091     0.36200
C40         C  0.13995279  0.23371919  0.41607352     0.36200
C41         C  0.23449005  0.13667427  0.02103864    -0.21300
C42         C  0.23448764  0.13667334  0.48100245    -0.21300
C43         C  0.13218508  0.30715897  0.02121956    -0.21300
C44         C  0.13218361  0.30716064  0.48081295    -0.21300
C45         C  0.17037373  0.19523394  0.12258443    -0.22400
C46         C  0.15245388  0.22669698  0.12366487    -0.22400
C47         C  0.17036730  0.19523715  0.37945481    -0.22400
C48         C  0.15245022  0.22670154  0.37837238    -0.22400
C49         C  0.19092854  0.15611132  0.07018155    -0.17700
C50         C  0.19092186  0.15611187  0.43185931    -0.17700
C51         C  0.11877889  0.26305400  0.42873440    -0.17700
C52         C  0.11878065  0.26304923  0.07329847    -0.17700
H53         H  0.25485874  0.12500581  0.03888992     0.15200
H54         H  0.25485468  0.12500453  0.46315174     0.15200
H55         H  0.13982367  0.32912448  0.03978304     0.15200
H56         H  0.13982162  0.32912743  0.46224951     0.15200
H57         H  0.18448350  0.18298472  0.14672488     0.13500
H58         H  0.15387686  0.24391971  0.14858657     0.13500
H59         H  0.18447611  0.18298817  0.35531556     0.13500
H60         H  0.15387524  0.24392551  0.35345053     0.13500
H61         H  0.16091728  0.17638216  0.00102031     0.26700
H62         H  0.10997199  0.22612474  0.00101657     0.26700
C63         C  0.34436553  0.42368946  0.37558343     0.87100
C64         C  0.34494155  0.38932121  0.39885989    -0.53200
C65         C  0.31234981  0.37778873  0.41027414     0.10000
C66         C  0.28221979  0.40324760  0.39787103     0.20900
C67         C  0.31909173  0.41668127  0.34113808    -0.53900
C68         C  0.28663056  0.40267545  0.35205682     0.10100
C69         C  0.32585102  0.45036080  0.40123676    -0.53400
C70         C  0.29371407  0.44013864  0.41426282     0.10700
H71         H  0.36920410  0.37503140  0.40554324     0.15200
H72         H  0.25519858  0.39851618  0.40789692     0.00900
H73         H  0.32776826  0.42017129  0.31109713     0.15500
H74         H  0.33851719  0.47480134  0.41057348     0.15300
C75         C  0.34437276  0.42367157  0.12644322     0.87100
C76         C  0.31910184  0.41666361  0.16089066    -0.53200
C77         C  0.28663771  0.40266173  0.14997446     0.10000
C78         C  0.28222251  0.40323636  0.10416059     0.20900
C79         C  0.34494317  0.38930465  0.10316764    -0.53900
C80         C  0.31234904  0.37777567  0.09175650     0.10100
C81         C  0.32585743  0.45034582  0.10079128    -0.53400
C82         C  0.29371820  0.44012738  0.08776823     0.10700
H83         H  0.32778155  0.42015318  0.19093063     0.15200
H84         H  0.25520046  0.39850658  0.09413443     0.00900
H85         H  0.36920363  0.37501299  0.09648280     0.15500
H86         H  0.33852432  0.47478616  0.09145364     0.15300
C87         C  0.15580946  0.07625565  0.12644995     0.87100
C88         C  0.18108234  0.08326253  0.16089691    -0.53200
C89         C  0.21354509  0.09726607  0.14997972     0.10000
C90         C  0.21795763  0.09669296  0.10416561     0.20900
C91         C  0.15523691  0.11062394  0.10317345    -0.53900
C92         C  0.18783002  0.12215419  0.09176136     0.10100
C93         C  0.17432343  0.04958288  0.10079793    -0.53400
C94         C  0.20646146  0.05980260  0.08777344     0.10700
H95         H  0.17240416  0.07977365  0.19093742     0.15200
H96         H  0.24497936  0.10142215  0.09413998     0.00900
H97         H  0.13097573  0.12491565  0.09648898     0.15500
H98         H  0.16165611  0.02514317  0.09146059     0.15300
C99         C  0.15580766  0.07626059  0.37558403     0.87100
C100        C  0.15523309  0.11062686  0.39886113    -0.53200
C101        C  0.18782550  0.12215755  0.41027664     0.10000
C102        C  0.21795454  0.09669961  0.39787348     0.20900
C103        C  0.18108061  0.08327096  0.34113965    -0.53900
C104        C  0.21354238  0.09727535  0.35205935     0.10100
C105        C  0.17432256  0.04958684  0.40123709    -0.53400
C106        C  0.20645988  0.05980766  0.41426407     0.10700
H107        H  0.13097104  0.12491640  0.40554439     0.15200
H108        H  0.24497609  0.10143002  0.40790030     0.00900
H109        H  0.17240336  0.07978185  0.31109871     0.15500
H110        H  0.16165644  0.02514560  0.41057310     0.15300
O111        O  0.24675709  0.45366376  0.04121057    -0.71200
O112        O  0.20702650  0.01253411  0.46112838    -0.71400
O113        O  0.24675595  0.45366826  0.46082399    -0.71300
O114        O  0.20702762  0.01253064  0.04090916    -0.71300
O115        O  0.25341956  0.04627086  0.04121323    -0.71300
O116        O  0.29314749  0.48740902  0.46112807    -0.71300
O117        O  0.25341810  0.04627493  0.46082640    -0.71200
O118        O  0.29314887  0.48740432  0.04090817    -0.71400
V119        V  0.22770190  0.48389807  0.00101814     1.35200
V120        V  0.27247327  0.01604099  0.00101905     1.35200
C121        C  0.27678163  0.46110539  0.05540757     0.78000
C122        C  0.22339432  0.03883222  0.44662806     0.78100
C123        C  0.27677960  0.46111193  0.44662665     0.78000
C124        C  0.22339573  0.03882783  0.05541040     0.77900
N125        N  0.31345002  0.33321300  0.00101617    -0.36000
N126        N  0.34619694  0.29056905  0.44084413    -0.56600
N127        N  0.38231183  0.24733685  0.00101743    -0.36000
N128        N  0.34618777  0.29055784  0.06118936    -0.59000
C129        C  0.29569051  0.34501314  0.46956072     0.27500
C130        C  0.29568700  0.34500673  0.03247003     0.27500
C131        C  0.37806778  0.22632620  0.46883656     0.27500
C132        C  0.37806559  0.22632235  0.03319648     0.27500
C133        C  0.32877812  0.31448622  0.41824731     0.36200
C134        C  0.36022724  0.26622757  0.41607190     0.36200
C135        C  0.32876829  0.31447185  0.08378595     0.36200
C136        C  0.36021909  0.26621474  0.08596165     0.36200
C137        C  0.26568858  0.36326363  0.48099618    -0.21300
C138        C  0.26568647  0.36325952  0.02103236    -0.21300
C139        C  0.36799273  0.19278093  0.48081170    -0.21300
C140        C  0.36799145  0.19277849  0.02121835    -0.21300
C141        C  0.32981201  0.30471184  0.37945115    -0.22400
C142        C  0.34773017  0.27324801  0.37836970    -0.22400
C143        C  0.32980209  0.30469364  0.12258185    -0.22400
C144        C  0.34772162  0.27323048  0.12366333    -0.22400
C145        C  0.30925513  0.34383176  0.43185514    -0.17700
C146        C  0.30924834  0.34382007  0.07017740    -0.17700
C147        C  0.38139573  0.23688297  0.07329898    -0.17700
C148        C  0.38140041  0.23689164  0.42873488    -0.17700
H149        H  0.24532073  0.37493290  0.46314463     0.15200
H150        H  0.24531767  0.37492551  0.03888329     0.15200
H151        H  0.36035447  0.17081605  0.46224716     0.15200
H152        H  0.36035222  0.17081143  0.03978077     0.15200
H153        H  0.31570256  0.31696203  0.35531108     0.13500
H154        H  0.34630534  0.25602603  0.35344758     0.13500
H155        H  0.31569345  0.31694181  0.14672172     0.13500
H156        H  0.34629986  0.25600654  0.14858544     0.13500
H157        H  0.33926093  0.32355663  0.00101801     0.26700
H158        H  0.39020658  0.27381417  0.00101885     0.26700
N159        N  0.16687598  0.31339032  0.25101710    -0.36000
N160        N  0.20949881  0.34613570  0.31119212    -0.56600
N161        N  0.25271166  0.38223944  0.25101595    -0.36000
N162        N  0.20949879  0.34613276  0.19084169    -0.56600
C163        C  0.15509866  0.29563457  0.28247463     0.27500
C164        C  0.15509665  0.29563461  0.21956128     0.27500
C165        C  0.27374056  0.37798571  0.28319839     0.27500
C166        C  0.27374219  0.37798106  0.21883736     0.27500
C167        C  0.18558413  0.32873164  0.33378886     0.36200
C168        C  0.23382705  0.36018084  0.33596591     0.36200
C169        C  0.18558336  0.32872933  0.16824521     0.36200
C170        C  0.23382911  0.36017451  0.16606825     0.36200
C171        C  0.13688531  0.26564641  0.27103733    -0.21300
C172        C  0.13688383  0.26564658  0.23100137    -0.21300
C173        C  0.30731124  0.36789061  0.27122471    -0.21300
C174        C  0.30731212  0.36788722  0.23081830    -0.21300
C175        C  0.19534565  0.32979881  0.37258974    -0.22400
C176        C  0.22679960  0.34771703  0.37367466    -0.22400
C177        C  0.19534620  0.32979370  0.12944526    -0.22400
C178        C  0.22680167  0.34770916  0.12836079    -0.22400
C179        C  0.15625928  0.30919064  0.32018270    -0.17700
C180        C  0.15625800  0.30918900  0.18185130    -0.17700
C181        C  0.26317265  0.38131769  0.17873372    -0.17700
C182        C  0.26316863  0.38132611  0.32329979    -0.17700
H183        H  0.12524997  0.24528141  0.28888586     0.15200
H184        H  0.12524734  0.24528175  0.21315468     0.15200
H185        H  0.32929362  0.36023591  0.28978934     0.15200
H186        H  0.32929526  0.36022887  0.21225879     0.15200
H187        H  0.18310164  0.31570984  0.39673519     0.13500
H188        H  0.24401739  0.34630971  0.39861046     0.13500
H189        H  0.18310207  0.31570411  0.10530086     0.13500
H190        H  0.24401977  0.34629954  0.10342664     0.13500
H191        H  0.17649674  0.33917860  0.25101594     0.26700
H192        H  0.22621390  0.39014405  0.25101327     0.26700
C193        C  0.07629253  0.34420831  0.37647897     0.87100
C194        C  0.08333773  0.31893777  0.41090816    -0.53200
C195        C  0.09740165  0.28650889  0.39997455     0.10000
C196        C  0.09684451  0.28212200  0.35415597     0.20900
C197        C  0.11068192  0.34480593  0.35320866    -0.53900
C198        C  0.12227539  0.31224783  0.34177351     0.10100
C199        C  0.04963103  0.32571520  0.35080519    -0.53400
C200        C  0.05990906  0.29360392  0.33776365     0.10700
H201        H  0.07982681  0.32759181  0.44095397     0.15200
H202        H  0.10162683  0.25512595  0.34411686     0.00900
H203        H  0.12494115  0.36906194  0.34654082     0.15500
H204        H  0.02515609  0.33837196  0.34147462     0.15300
C205        C  0.07629208  0.34420138  0.12554100     0.87100
C206        C  0.11068115  0.34480065  0.14881400    -0.53200
C207        C  0.12227514  0.31224345  0.16025518     0.10000
C208        C  0.09684535  0.28211644  0.14787432     0.20900
C209        C  0.08333735  0.31893015  0.09111623    -0.53900
C210        C  0.09740238  0.28650235  0.10205497     0.10100
C211        C  0.04963059  0.32570884  0.15121521    -0.53400
C212        C  0.05990918  0.29359811  0.16426220     0.10700
H213        H  0.12493948  0.36905731  0.15547991     0.15200
H214        H  0.10162884  0.25512076  0.15791711     0.00900
H215        H  0.07982530  0.32758304  0.06106914     0.15500
H216        H  0.02515532  0.33836567  0.16054186     0.15300
C217        C  0.42388620  0.15572989  0.12554908     0.87100
C218        C  0.38949808  0.15513055  0.14882176    -0.53200
C219        C  0.37790456  0.18768792  0.16025961     0.10000
C220        C  0.40333351  0.21781482  0.14787568     0.20900
C221        C  0.41683890  0.18100090  0.09112151    -0.53900
C222        C  0.40277464  0.21342876  0.10205706     0.10100
C223        C  0.45054850  0.17422285  0.15122221    -0.53400
C224        C  0.44026986  0.20633356  0.16426555     0.10700
H225        H  0.37524002  0.13087390  0.15548974     0.15200
H226        H  0.39855074  0.24481087  0.15791463     0.00900
H227        H  0.42034879  0.17234778  0.06107522     0.15500
H228        H  0.47502405  0.16156638  0.16055125     0.15300
C229        C  0.42388198  0.15573722  0.37648822     0.87100
C230        C  0.41684053  0.18100862  0.41091438    -0.53200
C231        C  0.40277745  0.21343792  0.39997727     0.10000
C232        C  0.40333271  0.21782443  0.35415795     0.20900
C233        C  0.38949135  0.15514134  0.35321793    -0.53900
C234        C  0.37789933  0.18769988  0.34177878     0.10100
C235        C  0.45054335  0.17422810  0.35081249    -0.53400
C236        C  0.44026703  0.20633988  0.33776726     0.10700
H237        H  0.42035267  0.17235478  0.44096116     0.15200
H238        H  0.39855138  0.24482061  0.34411537     0.00900
H239        H  0.37523046  0.13088607  0.34655265     0.15500
H240        H  0.47501712  0.16156957  0.34148379     0.15300
O241        O  0.45374723  0.25327765  0.29120701    -0.71200
O242        O  0.01259229  0.29300842  0.21111806    -0.71400
O243        O  0.45374753  0.25327360  0.21081961    -0.71300
O244        O  0.01259270  0.29301204  0.29090385    -0.71300
O245        O  0.04643024  0.24666307  0.29121068    -0.71300
O246        O  0.48758578  0.20692512  0.21112555    -0.71300
O247        O  0.04643073  0.24666011  0.21082315    -0.71200
O248        O  0.48758465  0.20692861  0.29091156    -0.71400
V249        V  0.48397069  0.27233337  0.25101223     1.35200
V250        V  0.01620713  0.22760374  0.25101770     1.35200
C251        C  0.46123893  0.22327370  0.30540654     0.78000
C252        C  0.03893824  0.27666381  0.19662322     0.78100
C253        C  0.46124022  0.22326894  0.19662569     0.78000
C254        C  0.03893816  0.27666808  0.30540398     0.77900
N255        N  0.33330071  0.18655033  0.25101976    -0.36000
N256        N  0.29067922  0.15380269  0.19084555    -0.56600
N257        N  0.24746517  0.11770370  0.25102071    -0.36000
N258        N  0.29067396  0.15381601  0.31119603    -0.56600
C259        C  0.34508297  0.20430199  0.21956115     0.27500
C260        C  0.34507772  0.20430978  0.28247464     0.27500
C261        C  0.22643558  0.12195647  0.21883859     0.27500
C262        C  0.22643518  0.12196263  0.28319957     0.27500
C263        C  0.31459658  0.17120293  0.16824862     0.36200
C264        C  0.26635105  0.13975773  0.16607140     0.36200
C265        C  0.31458936  0.17121917  0.33379252     0.36200
C266        C  0.26634649  0.13976973  0.33596954     0.36200
C267        C  0.36329665  0.23429042  0.23099675    -0.21300
C268        C  0.36329321  0.23429531  0.27103270    -0.21300
C269        C  0.19286500  0.13205151  0.23081287    -0.21300
C270        C  0.19286491  0.13205578  0.27121936    -0.21300
C271        C  0.30483681  0.17013373  0.12944734    -0.22400
C272        C  0.27338139  0.15221853  0.12836216    -0.22400
C273        C  0.30482887  0.17015064  0.37259316    -0.22400
C274        C  0.27337515  0.15223179  0.37367818    -0.22400
C275        C  0.34392226  0.19074293  0.18185418    -0.17700
C276        C  0.34391524  0.19075814  0.32018569    -0.17700
C277        C  0.23700514  0.11862438  0.32330280    -0.17700
C278        C  0.23700734  0.11861510  0.17873715    -0.17700
H279        H  0.37493473  0.25465315  0.21314745     0.15200
H280        H  0.37492893  0.25466138  0.28887849     0.15200
H281        H  0.17088209  0.13970553  0.21224869     0.15200
H282        H  0.17088175  0.13971291  0.28977952     0.15200
H283        H  0.31708300  0.18422011  0.10530139     0.13500
H284        H  0.25616473  0.15362688  0.10342556     0.13500
H285        H  0.31707403  0.18423813  0.39673844     0.13500
H286        H  0.25615877  0.15363672  0.39861416     0.13500
H287        H  0.32367928  0.16076413  0.25102322     0.26700
H288        H  0.27396256  0.10979886  0.25102323     0.26700
C289        C  0.06412882  0.37998200  0.11739685    -0.12700
C290        C  0.05143700  0.40895224  0.12081706    -0.14300
C291        C  0.09105751  0.05137282  0.13107334    -0.12700
C292        C  0.12000027  0.06412230  0.13454361    -0.14300
C293        C  0.43604971  0.11994941  0.11740811    -0.12700
C294        C  0.44874274  0.09097923  0.12082759    -0.14300
C295        C  0.40912434  0.44855638  0.13106576    -0.12700
C296        C  0.38018245  0.43580494  0.13453573    -0.14300
C297        C  0.11999958  0.06412611  0.36748579    -0.12700
C298        C  0.09105662  0.05137632  0.37095100    -0.14300
C299        C  0.05143467  0.40895927  0.38119178    -0.12700
C300        C  0.06412865  0.37998972  0.38461586    -0.14300
C301        C  0.38017332  0.43582440  0.36748615    -0.12700
C302        C  0.40911689  0.44857268  0.37095165    -0.14300
C303        C  0.44873819  0.09098623  0.38120520    -0.12700
C304        C  0.43604427  0.11995541  0.38462912    -0.14300
O305        O  0.47522102  0.04262259  0.90922016    -0.71200
O306        O  0.02495655  0.45731942  0.90921348    -0.71400
O307        O  0.04399448  0.02546370  0.90687176    -0.71300
O308        O  0.45618294  0.47447889  0.90687208    -0.71300
O309        O  0.45739345  0.47519952  0.84294627    -0.71300
O310        O  0.04277705  0.02475339  0.84294598    -0.71300
O311        O  0.02555279  0.45604869  0.84528704    -0.71200
O312        O  0.47461770  0.04390370  0.84529390    -0.71400
V313        V  0.50008876  0.99997126  0.90680783     1.35200
V314        V  0.00008535  0.49997626  0.84535603     1.35200
C315        C  0.46654947  0.05787592  0.87806855     0.78000
C316        C  0.03362419  0.44207088  0.87805959     0.78100
C317        C  0.05798673  0.03349538  0.87409612     0.78000
C318        C  0.44218717  0.46645260  0.87409655     0.77900
O319        O  0.47521861  0.04261817  0.59280487    -0.71200
O320        O  0.02496124  0.45731894  0.59279981    -0.71400
O321        O  0.45618618  0.47447165  0.59514536    -0.71300
O322        O  0.04399376  0.02546490  0.59514928    -0.71300
O323        O  0.04278321  0.02473888  0.65907498    -0.71300
O324        O  0.45739927  0.47518629  0.65907116    -0.71300
O325        O  0.02555743  0.45603509  0.65672614    -0.71200
O326        O  0.47462476  0.04389047  0.65673133    -0.71400
V327        V  0.50008996  0.99996834  0.59521119     1.35200
V328        V  0.00009119  0.49996282  0.65666303     1.35200
C329        C  0.46655230  0.05786745  0.62395880     0.78000
C330        C  0.03362847  0.44206394  0.62395195     0.78100
C331        C  0.44219249  0.46644073  0.62792061     0.78000
C332        C  0.05798883  0.03348980  0.62792575     0.77900
N333        N  0.18672795  0.16672473  0.50102020    -0.36000
N334        N  0.15398662  0.20937340  0.56119123    -0.56600
N335        N  0.11786615  0.25260221  0.50101643    -0.36000
N336        N  0.15398241  0.20937553  0.94084679    -0.56600
C337        C  0.20449032  0.15492754  0.53247505     0.27500
C338        C  0.20448659  0.15492626  0.96956566     0.27500
C339        C  0.12211179  0.27361368  0.53319635     0.27500
C340        C  0.12210976  0.27361614  0.96883638     0.27500
C341        C  0.17140700  0.18545798  0.58378873     0.36200
C342        C  0.13995584  0.23371525  0.58596255     0.36200
C343        C  0.17140064  0.18545971  0.91825093     0.36200
C344        C  0.13995281  0.23371922  0.91607353     0.36200
C345        C  0.23449008  0.13667431  0.52103862    -0.21300
C346        C  0.23448770  0.13667338  0.98100247    -0.21300
C347        C  0.13218507  0.30715901  0.52121959    -0.21300
C348        C  0.13218364  0.30716061  0.98081294    -0.21300
C349        C  0.17037371  0.19523394  0.62258445    -0.22400
C350        C  0.15245385  0.22669697  0.62366492    -0.22400
C351        C  0.17036731  0.19523714  0.87945483    -0.22400
C352        C  0.15245025  0.22670155  0.87837238    -0.22400
C353        C  0.19092857  0.15611130  0.57018158    -0.17700
C354        C  0.19092192  0.15611193  0.93185932    -0.17700
C355        C  0.11877887  0.26305401  0.92873438    -0.17700
C356        C  0.11878066  0.26304924  0.57329849    -0.17700
H357        H  0.25485880  0.12500584  0.53888985     0.15200
H358        H  0.25485478  0.12500459  0.96315179     0.15200
H359        H  0.13982368  0.32912455  0.53978301     0.15200
H360        H  0.13982168  0.32912742  0.96224953     0.15200
H361        H  0.18448353  0.18298476  0.64672487     0.13500
H362        H  0.15387686  0.24391972  0.64858662     0.13500
H363        H  0.18447610  0.18298813  0.85531559     0.13500
H364        H  0.15387524  0.24392550  0.85345052     0.13500
H365        H  0.16091732  0.17638220  0.50102031     0.26700
H366        H  0.10997210  0.22612501  0.50101651     0.26700
C367        C  0.34436552  0.42368947  0.87558340     0.87100
C368        C  0.34494159  0.38932121  0.89885985    -0.53200
C369        C  0.31234985  0.37778869  0.91027409     0.10000
C370        C  0.28221982  0.40324758  0.89787102     0.20900
C371        C  0.31909170  0.41668129  0.84113807    -0.53900
C372        C  0.28663056  0.40267543  0.85205682     0.10100
C373        C  0.32585101  0.45036079  0.90123674    -0.53400
C374        C  0.29371408  0.44013860  0.91426282     0.10700
H375        H  0.36920415  0.37503140  0.90554319     0.15200
H376        H  0.25519863  0.39851616  0.90789695     0.00900
H377        H  0.32776819  0.42017135  0.81109711     0.15500
H378        H  0.33851715  0.47480134  0.91057343     0.15300
C379        C  0.34437273  0.42367152  0.62644326     0.87100
C380        C  0.31910182  0.41666355  0.66089071    -0.53200
C381        C  0.28663770  0.40266167  0.64997448     0.10000
C382        C  0.28222248  0.40323630  0.60416059     0.20900
C383        C  0.34494312  0.38930455  0.60316772    -0.53900
C384        C  0.31234900  0.37777562  0.59175651     0.10100
C385        C  0.32585740  0.45034581  0.60079132    -0.53400
C386        C  0.29371818  0.44012735  0.58776824     0.10700
H387        H  0.32778151  0.42015318  0.69093069     0.15200
H388        H  0.25520041  0.39850655  0.59413442     0.00900
H389        H  0.36920356  0.37501281  0.59648298     0.15500
H390        H  0.33852426  0.47478622  0.59145376     0.15300
C391        C  0.15580945  0.07625568  0.62644995     0.87100
C392        C  0.18108235  0.08326253  0.66089690    -0.53200
C393        C  0.21354515  0.09726601  0.64997974     0.10000
C394        C  0.21795766  0.09669293  0.60416564     0.20900
C395        C  0.15523695  0.11062397  0.60317349    -0.53900
C396        C  0.18783007  0.12215419  0.59176141     0.10100
C397        C  0.17432339  0.04958288  0.60079793    -0.53400
C398        C  0.20646143  0.05980258  0.58777343     0.10700
H399        H  0.17240415  0.07977371  0.69093740     0.15200
H400        H  0.24497939  0.10142208  0.59413996     0.00900
H401        H  0.13097578  0.12491569  0.59648896     0.15500
H402        H  0.16165606  0.02514315  0.59146059     0.15300
C403        C  0.15580765  0.07626061  0.87558408     0.87100
C404        C  0.15523308  0.11062691  0.89886116    -0.53200
C405        C  0.18782552  0.12215757  0.91027670     0.10000
C406        C  0.21795456  0.09669963  0.89787355     0.20900
C407        C  0.18108063  0.08327096  0.84113970    -0.53900
C408        C  0.21354240  0.09727535  0.85205941     0.10100
C409        C  0.17432253  0.04958687  0.90123718    -0.53400
C410        C  0.20645987  0.05980767  0.91426410     0.10700
H411        H  0.13097104  0.12491652  0.90554432     0.15200
H412        H  0.24497611  0.10143003  0.90790042     0.00900
H413        H  0.17240338  0.07978190  0.81109874     0.15500
H414        H  0.16165640  0.02514565  0.91057324     0.15300
O415        O  0.24675706  0.45366376  0.54121053    -0.71200
O416        O  0.20702652  0.01253414  0.96112838    -0.71400
O417        O  0.24675596  0.45366821  0.96082401    -0.71300
O418        O  0.20702764  0.01253061  0.54090916    -0.71300
O419        O  0.25341957  0.04627082  0.54121324    -0.71300
O420        O  0.29314751  0.48740897  0.96112808    -0.71300
O421        O  0.25341812  0.04627497  0.96082636    -0.71200
O422        O  0.29314883  0.48740433  0.54090820    -0.71400
V423        V  0.22770190  0.48389810  0.50101813     1.35200
V424        V  0.27247328  0.01604095  0.50101906     1.35200
C425        C  0.27678160  0.46110538  0.55540757     0.78000
C426        C  0.22339434  0.03883225  0.94662804     0.78100
C427        C  0.27677962  0.46111189  0.94662666     0.78000
C428        C  0.22339574  0.03882781  0.55541040     0.77900
N429        N  0.31344996  0.33321290  0.50101621    -0.36000
N430        N  0.34619695  0.29056903  0.94084410    -0.56600
N431        N  0.38231188  0.24733694  0.50101745    -0.36000
N432        N  0.34618780  0.29055783  0.56118940    -0.59000
C433        C  0.29569053  0.34501318  0.96956070     0.27500
C434        C  0.29568698  0.34500663  0.53247006     0.27500
C435        C  0.37806779  0.22632619  0.96883657     0.27500
C436        C  0.37806561  0.22632232  0.53319651     0.27500
C437        C  0.32877813  0.31448618  0.91824729     0.36200
C438        C  0.36022724  0.26622753  0.91607186     0.36200
C439        C  0.32876833  0.31447185  0.58378598     0.36200
C440        C  0.36021910  0.26621472  0.58596171     0.36200
C441        C  0.26568859  0.36326366  0.98099616    -0.21300
C442        C  0.26568649  0.36325951  0.52103236    -0.21300
C443        C  0.36799277  0.19278089  0.98081174    -0.21300
C444        C  0.36799144  0.19277849  0.52121832    -0.21300
C445        C  0.32981205  0.30471181  0.87945111    -0.22400
C446        C  0.34773020  0.27324798  0.87836964    -0.22400
C447        C  0.32980213  0.30469367  0.62258190    -0.22400
C448        C  0.34772164  0.27323050  0.62366338    -0.22400
C449        C  0.30925511  0.34383174  0.93185508    -0.17700
C450        C  0.30924832  0.34382002  0.57017743    -0.17700
C451        C  0.38139574  0.23688296  0.57329900    -0.17700
C452        C  0.38140038  0.23689159  0.92873487    -0.17700
H453        H  0.24532072  0.37493287  0.96314463     0.15200
H454        H  0.24531776  0.37492561  0.53888328     0.15200
H455        H  0.36035451  0.17081598  0.96224727     0.15200
H456        H  0.36035222  0.17081141  0.53978074     0.15200
H457        H  0.31570259  0.31696202  0.85531108     0.13500
H458        H  0.34630537  0.25602602  0.85344749     0.13500
H459        H  0.31569347  0.31694187  0.64672176     0.13500
H460        H  0.34629992  0.25600658  0.64858553     0.13500
H461        H  0.33926099  0.32355652  0.50101803     0.26700
H462        H  0.39020658  0.27381396  0.50101892     0.26700
N463        N  0.16687606  0.31339038  0.75101708    -0.36000
N464        N  0.20949883  0.34613563  0.81119209    -0.56600
N465        N  0.25271170  0.38223942  0.75101596    -0.36000
N466        N  0.20949869  0.34613289  0.69084169    -0.56600
C467        C  0.15509865  0.29563454  0.78247462     0.27500
C468        C  0.15509661  0.29563462  0.71956125     0.27500
C469        C  0.27374054  0.37798565  0.78319840     0.27500
C470        C  0.27374222  0.37798098  0.71883738     0.27500
C471        C  0.18558415  0.32873160  0.83378883     0.36200
C472        C  0.23382703  0.36018085  0.83596590     0.36200
C473        C  0.18558330  0.32872944  0.66824522     0.36200
C474        C  0.23382907  0.36017456  0.66606826     0.36200
C475        C  0.13688529  0.26564643  0.77103728    -0.21300
C476        C  0.13688381  0.26564660  0.73100131    -0.21300
C477        C  0.30731122  0.36789053  0.77122475    -0.21300
C478        C  0.30731215  0.36788720  0.73081834    -0.21300
C479        C  0.19534568  0.32979877  0.87258971    -0.22400
C480        C  0.22679959  0.34771705  0.87367465    -0.22400
C481        C  0.19534619  0.32979374  0.62944527    -0.22400
C482        C  0.22680164  0.34770921  0.62836082    -0.22400
C483        C  0.15625929  0.30919063  0.82018266    -0.17700
C484        C  0.15625794  0.30918910  0.68185130    -0.17700
C485        C  0.26317268  0.38131762  0.67873374    -0.17700
C486        C  0.26316862  0.38132611  0.82329979    -0.17700
H487        H  0.12524997  0.24528143  0.78888582     0.15200
H488        H  0.12524732  0.24528176  0.71315462     0.15200
H489        H  0.32929359  0.36023585  0.78978938     0.15200
H490        H  0.32929537  0.36022894  0.71225888     0.15200
H491        H  0.18310168  0.31570976  0.89673514     0.13500
H492        H  0.24401738  0.34630977  0.89861046     0.13500
H493        H  0.18310213  0.31570412  0.60530088     0.13500
H494        H  0.24401977  0.34629953  0.60342669     0.13500
H495        H  0.17649669  0.33917833  0.75101595     0.26700
H496        H  0.22621395  0.39014416  0.75101325     0.26700
C497        C  0.07629253  0.34420837  0.87647896     0.87100
C498        C  0.08333775  0.31893784  0.91090817    -0.53200
C499        C  0.09740167  0.28650895  0.89997455     0.10000
C500        C  0.09684452  0.28212205  0.85415595     0.20900
C501        C  0.11068192  0.34480597  0.85320862    -0.53900
C502        C  0.12227537  0.31224786  0.84177345     0.10100
C503        C  0.04963104  0.32571525  0.85080517    -0.53400
C504        C  0.05990907  0.29360395  0.83776365     0.10700
H505        H  0.07982685  0.32759187  0.94095400     0.15200
H506        H  0.10162686  0.25512600  0.84411685     0.00900
H507        H  0.12494115  0.36906198  0.84654080     0.15500
H508        H  0.02515611  0.33837200  0.84147456     0.15300
C509        C  0.07629201  0.34420141  0.62554107     0.87100
C510        C  0.11068106  0.34480072  0.64881404    -0.53200
C511        C  0.12227509  0.31224353  0.66025520     0.10000
C512        C  0.09684533  0.28211649  0.64787434     0.20900
C513        C  0.08333733  0.31893017  0.59111630    -0.53900
C514        C  0.09740238  0.28650238  0.60205500     0.10100
C515        C  0.04963057  0.32570884  0.65121531    -0.53400
C516        C  0.05990918  0.29359811  0.66426224     0.10700
H517        H  0.12493936  0.36905741  0.65547992     0.15200
H518        H  0.10162885  0.25512083  0.65791712     0.00900
H519        H  0.07982532  0.32758310  0.56106922     0.15500
H520        H  0.02515535  0.33836567  0.66054211     0.15300
C521        C  0.42388618  0.15572983  0.62554907     0.87100
C522        C  0.38949805  0.15513048  0.64882177    -0.53200
C523        C  0.37790456  0.18768786  0.66025965     0.10000
C524        C  0.40333353  0.21781475  0.64787570     0.20900
C525        C  0.41683891  0.18100087  0.59112150    -0.53900
C526        C  0.40277464  0.21342870  0.60205708     0.10100
C527        C  0.45054850  0.17422278  0.65122222    -0.53400
C528        C  0.44026989  0.20633351  0.66426556     0.10700
H529        H  0.37523994  0.13087383  0.65548970     0.15200
H530        H  0.39855076  0.24481080  0.65791462     0.00900
H531        H  0.42034885  0.17234776  0.56107520     0.15500
H532        H  0.47502405  0.16156627  0.66055126     0.15300
C533        C  0.42388199  0.15573725  0.87648828     0.87100
C534        C  0.41684059  0.18100869  0.91091441    -0.53200
C535        C  0.40277750  0.21343796  0.89997729     0.10000
C536        C  0.40333273  0.21782443  0.85415798     0.20900
C537        C  0.38949135  0.15514135  0.85321801    -0.53900
C538        C  0.37789931  0.18769988  0.84177886     0.10100
C539        C  0.45054336  0.17422810  0.85081251    -0.53400
C540        C  0.44026704  0.20633986  0.83776723     0.10700
H541        H  0.42035273  0.17235488  0.94096118     0.15200
H542        H  0.39855142  0.24482058  0.84411542     0.00900
H543        H  0.37523051  0.13088606  0.84655266     0.15500
H544        H  0.47501712  0.16156951  0.84148385     0.15300
O545        O  0.45374721  0.25327770  0.79120700    -0.71200
O546        O  0.01259236  0.29300845  0.71111812    -0.71400
O547        O  0.45374755  0.25327365  0.71081954    -0.71300
O548        O  0.01259269  0.29301205  0.79090389    -0.71300
O549        O  0.04643026  0.24666311  0.79121067    -0.71300
O550        O  0.48758576  0.20692514  0.71112560    -0.71300
O551        O  0.04643071  0.24666009  0.71082315    -0.71200
O552        O  0.48758467  0.20692867  0.79091156    -0.71400
V553        V  0.48397067  0.27233341  0.75101223     1.35200
V554        V  0.01620712  0.22760378  0.75101772     1.35200
C555        C  0.46123892  0.22327374  0.80540653     0.78000
C556        C  0.03893825  0.27666381  0.69662326     0.78100
C557        C  0.46124022  0.22326896  0.69662569     0.78000
C558        C  0.03893816  0.27666811  0.80540399     0.77900
N559        N  0.33330077  0.18655027  0.75101984    -0.36000
N560        N  0.29067918  0.15380272  0.69084567    -0.56600
N561        N  0.24746512  0.11770360  0.75102080    -0.36000
N562        N  0.29067402  0.15381592  0.81119603    -0.56600
C563        C  0.34508301  0.20430193  0.71956123     0.27500
C564        C  0.34507772  0.20430976  0.78247470     0.27500
C565        C  0.22643560  0.12195638  0.71883866     0.27500
C566        C  0.22643517  0.12196265  0.78319964     0.27500
C567        C  0.31459659  0.17120290  0.66824872     0.36200
C568        C  0.26635104  0.13975773  0.66607150     0.36200
C569        C  0.31458935  0.17121917  0.83379251     0.36200
C570        C  0.26634655  0.13976966  0.83596957     0.36200
C571        C  0.36329667  0.23429035  0.73099678    -0.21300
C572        C  0.36329318  0.23429529  0.77103273    -0.21300
C573        C  0.19286505  0.13205154  0.73081289    -0.21300
C574        C  0.19286492  0.13205587  0.77121939    -0.21300
C575        C  0.30483683  0.17013373  0.62944745    -0.22400
C576        C  0.27338143  0.15221848  0.62836225    -0.22400
C577        C  0.30482884  0.17015070  0.87259311    -0.22400
C578        C  0.27337515  0.15223180  0.87367815    -0.22400
C579        C  0.34392226  0.19074291  0.68185425    -0.17700
C580        C  0.34391523  0.19075817  0.82018573    -0.17700
C581        C  0.23700514  0.11862439  0.82330286    -0.17700
C582        C  0.23700736  0.11861505  0.67873723    -0.17700
H583        H  0.37493472  0.25465306  0.71314745     0.15200
H584        H  0.37492883  0.25466139  0.78887852     0.15200
H585        H  0.17088221  0.13970563  0.71224865     0.15200
H586        H  0.17088175  0.13971304  0.78977952     0.15200
H587        H  0.31708300  0.18422019  0.60530155     0.13500
H588        H  0.25616483  0.15362676  0.60342560     0.13500
H589        H  0.31707401  0.18423821  0.89673834     0.13500
H590        H  0.25615877  0.15363675  0.89861414     0.13500
H591        H  0.32367937  0.16076402  0.75102332     0.26700
H592        H  0.27396261  0.10979869  0.75102338     0.26700
C593        C  0.06412873  0.37998201  0.61739686    -0.12700
C594        C  0.05143690  0.40895225  0.62081698    -0.14300
C595        C  0.09105749  0.05137288  0.63107346    -0.12700
C596        C  0.12000023  0.06412241  0.63454364    -0.14300
C597        C  0.43604969  0.11994937  0.61740806    -0.12700
C598        C  0.44874277  0.09097923  0.62082758    -0.14300
C599        C  0.40912437  0.44855623  0.63106583    -0.12700
C600        C  0.38018245  0.43580481  0.63453576    -0.14300
C601        C  0.11999959  0.06412608  0.86748578    -0.12700
C602        C  0.09105662  0.05137629  0.87095091    -0.14300
C603        C  0.05143468  0.40895935  0.88119179    -0.12700
C604        C  0.06412866  0.37998979  0.88461582    -0.14300
C605        C  0.38017327  0.43582448  0.86748610    -0.12700
C606        C  0.40911683  0.44857274  0.87095168    -0.14300
C607        C  0.44873821  0.09098630  0.88120521    -0.12700
C608        C  0.43604428  0.11995546  0.88462927    -0.14300
O609        O  0.47522091  0.54262249  0.40922019    -0.71200
O610        O  0.02495653  0.95731940  0.40921351    -0.71400
O611        O  0.04399452  0.52546365  0.40687168    -0.71300
O612        O  0.45618299  0.97447890  0.40687208    -0.71300
O613        O  0.45739341  0.97519965  0.34294626    -0.71300
O614        O  0.04277706  0.52475333  0.34294589    -0.71300
O615        O  0.02555279  0.95604868  0.34528707    -0.71200
O616        O  0.47461779  0.54390369  0.34529393    -0.71400
V617        V  0.50008871  0.49997119  0.40680782     1.35200
V618        V  0.00008536  0.99997628  0.34535605     1.35200
C619        C  0.46654944  0.55787585  0.37806857     0.78000
C620        C  0.03362418  0.94207086  0.37805963     0.78100
C621        C  0.05798673  0.53349534  0.37409602     0.78000
C622        C  0.44218716  0.96645271  0.37409654     0.77900
O623        O  0.47521858  0.54261812  0.09280491    -0.71200
O624        O  0.02496128  0.95731890  0.09279983    -0.71400
O625        O  0.45618620  0.97447163  0.09514538    -0.71300
O626        O  0.04399366  0.52546495  0.09514924    -0.71300
O627        O  0.04278326  0.52473887  0.15907494    -0.71300
O628        O  0.45739929  0.97518625  0.15907119    -0.71300
O629        O  0.02555743  0.95603508  0.15672615    -0.71200
O630        O  0.47462481  0.54389046  0.15673137    -0.71400
V631        V  0.50008996  0.49996831  0.09521122     1.35200
V632        V  0.00009119  0.99996281  0.15666302     1.35200
C633        C  0.46655233  0.55786742  0.12395885     0.78000
C634        C  0.03362853  0.94206393  0.12395198     0.78100
C635        C  0.44219252  0.96644069  0.12792062     0.78000
C636        C  0.05798880  0.53348983  0.12792566     0.77900
N637        N  0.18672787  0.66672475  0.00102021    -0.36000
N638        N  0.15398666  0.70937341  0.06119120    -0.56600
N639        N  0.11786610  0.75260220  0.00101642    -0.36000
N640        N  0.15398244  0.70937552  0.44084677    -0.56600
C641        C  0.20449035  0.65492755  0.03247506     0.27500
C642        C  0.20448645  0.65492626  0.46956565     0.27500
C643        C  0.12211180  0.77361364  0.03319635     0.27500
C644        C  0.12210975  0.77361618  0.46883637     0.27500
C645        C  0.17140704  0.68545800  0.08378871     0.36200
C646        C  0.13995588  0.73371524  0.08596252     0.36200
C647        C  0.17140060  0.68545969  0.41825091     0.36200
C648        C  0.13995288  0.73371924  0.41607351     0.36200
C649        C  0.23449010  0.63667434  0.02103862    -0.21300
C650        C  0.23448753  0.63667336  0.48100245    -0.21300
C651        C  0.13218511  0.80715896  0.02121957    -0.21300
C652        C  0.13218356  0.80716065  0.48081291    -0.21300
C653        C  0.17037377  0.69523393  0.12258442    -0.22400
C654        C  0.15245389  0.72669696  0.12366488    -0.22400
C655        C  0.17036731  0.69523714  0.37945483    -0.22400
C656        C  0.15245031  0.72670157  0.37837237    -0.22400
C657        C  0.19092857  0.65611131  0.07018156    -0.17700
C658        C  0.19092186  0.65611191  0.43185930    -0.17700
C659        C  0.11877892  0.76305401  0.42873439    -0.17700
C660        C  0.11878069  0.76304921  0.07329848    -0.17700
H661        H  0.25485883  0.62500592  0.03888989     0.15200
H662        H  0.25485461  0.62500464  0.46315172     0.15200
H663        H  0.13982376  0.82912450  0.03978300     0.15200
H664        H  0.13982152  0.82912747  0.46224947     0.15200
H665        H  0.18448358  0.68298473  0.14672484     0.13500
H666        H  0.15387688  0.74391972  0.14858658     0.13500
H667        H  0.18447612  0.68298815  0.35531561     0.13500
H668        H  0.15387535  0.74392549  0.35345049     0.13500
H669        H  0.16091752  0.67638213  0.00102035     0.26700
H670        H  0.10997195  0.72612494  0.00101658     0.26700
C671        C  0.34436554  0.92368945  0.37558341     0.87100
C672        C  0.34494158  0.88932120  0.39885987    -0.53200
C673        C  0.31234984  0.87778869  0.41027411     0.10000
C674        C  0.28221983  0.90324757  0.39787103     0.20900
C675        C  0.31909172  0.91668128  0.34113808    -0.53900
C676        C  0.28663056  0.90267542  0.35205683     0.10100
C677        C  0.32585105  0.95036077  0.40123676    -0.53400
C678        C  0.29371412  0.94013859  0.41426284     0.10700
H679        H  0.36920413  0.87503141  0.40554322     0.15200
H680        H  0.25519863  0.89851612  0.40789694     0.00900
H681        H  0.32776818  0.92017129  0.31109711     0.15500
H682        H  0.33851719  0.97480130  0.41057348     0.15300
C683        C  0.34437280  0.92367150  0.12644319     0.87100
C684        C  0.31910187  0.91666355  0.16089065    -0.53200
C685        C  0.28663774  0.90266165  0.14997445     0.10000
C686        C  0.28222252  0.90323632  0.10416059     0.20900
C687        C  0.34494319  0.88930455  0.10316761    -0.53900
C688        C  0.31234905  0.87777562  0.09175646     0.10100
C689        C  0.32585747  0.95034581  0.10079127    -0.53400
C690        C  0.29371823  0.94012737  0.08776822     0.10700
H691        H  0.32778157  0.92015317  0.19093061     0.15200
H692        H  0.25520044  0.89850655  0.09413444     0.00900
H693        H  0.36920365  0.87501287  0.09648275     0.15500
H694        H  0.33852437  0.97478617  0.09145364     0.15300
C695        C  0.15580946  0.57625567  0.12644998     0.87100
C696        C  0.18108236  0.58326256  0.16089692    -0.53200
C697        C  0.21354514  0.59726609  0.14997970     0.10000
C698        C  0.21795767  0.59669296  0.10416558     0.20900
C699        C  0.15523695  0.61062393  0.10317346    -0.53900
C700        C  0.18783007  0.62215416  0.09176132     0.10100
C701        C  0.17432341  0.54958289  0.10079796    -0.53400
C702        C  0.20646147  0.55980259  0.08777346     0.10700
H703        H  0.17240425  0.57977369  0.19093745     0.15200
H704        H  0.24497941  0.60142212  0.09413988     0.00900
H705        H  0.13097579  0.62491568  0.09648901     0.15500
H706        H  0.16165607  0.52514318  0.09146059     0.15300
C707        C  0.15580769  0.57626058  0.37558403     0.87100
C708        C  0.15523312  0.61062688  0.39886111    -0.53200
C709        C  0.18782554  0.62215757  0.41027662     0.10000
C710        C  0.21795459  0.59669963  0.39787348     0.20900
C711        C  0.18108066  0.58327095  0.34113963    -0.53900
C712        C  0.21354244  0.59727533  0.35205935     0.10100
C713        C  0.17432259  0.54958682  0.40123708    -0.53400
C714        C  0.20645991  0.55980766  0.41426405     0.10700
H715        H  0.13097108  0.62491644  0.40554437     0.15200
H716        H  0.24497615  0.60143001  0.40790035     0.00900
H717        H  0.17240344  0.57978190  0.31109867     0.15500
H718        H  0.16165649  0.52514556  0.41057309     0.15300
O719        O  0.24675711  0.95366377  0.04121055    -0.71200
O720        O  0.20702648  0.51253419  0.46112842    -0.71400
O721        O  0.24675605  0.95366819  0.46082404    -0.71300
O722        O  0.20702759  0.51253064  0.04090917    -0.71300
O723        O  0.25341953  0.54627086  0.04121317    -0.71300
O724        O  0.29314752  0.98740904  0.46112802    -0.71300
O725        O  0.25341813  0.54627494  0.46082637    -0.71200
O726        O  0.29314887  0.98740434  0.04090816    -0.71400
V727        V  0.22770194  0.98389809  0.00101813     1.35200
V728        V  0.27247326  0.51604094  0.00101904     1.35200
C729        C  0.27678165  0.96110540  0.05540756     0.78000
C730        C  0.22339434  0.53883226  0.44662805     0.78100
C731        C  0.27677968  0.96111191  0.44662667     0.78000
C732        C  0.22339571  0.53882783  0.05541038     0.77900
N733        N  0.31345007  0.83321298  0.00101617    -0.36000
N734        N  0.34619697  0.79056907  0.44084413    -0.56600
N735        N  0.38231185  0.74733685  0.00101744    -0.36000
N736        N  0.34618784  0.79055789  0.06118938    -0.59000
C737        C  0.29569057  0.84501320  0.46956074     0.27500
C738        C  0.29568700  0.84500665  0.03247003     0.27500
C739        C  0.37806773  0.72632620  0.46883656     0.27500
C740        C  0.37806568  0.72632237  0.03319649     0.27500
C741        C  0.32877804  0.81448613  0.41824733     0.36200
C742        C  0.36022729  0.76622758  0.41607188     0.36200
C743        C  0.32876824  0.81447183  0.08378594     0.36200
C744        C  0.36021914  0.76621479  0.08596168     0.36200
C745        C  0.26568864  0.86326370  0.48099618    -0.21300
C746        C  0.26568650  0.86325948  0.02103235    -0.21300
C747        C  0.36799269  0.69278092  0.48081175    -0.21300
C748        C  0.36799150  0.69277850  0.02121835    -0.21300
C749        C  0.32981194  0.80471176  0.37945117    -0.22400
C750        C  0.34773020  0.77324799  0.37836969    -0.22400
C751        C  0.32980196  0.80469362  0.12258183    -0.22400
C752        C  0.34772156  0.77323050  0.12366333    -0.22400
C753        C  0.30925511  0.84383175  0.43185513    -0.17700
C754        C  0.30924831  0.84382003  0.07017738    -0.17700
C755        C  0.38139578  0.73688299  0.07329900    -0.17700
C756        C  0.38140042  0.73689163  0.42873487    -0.17700
H757        H  0.24532075  0.87493286  0.46314464     0.15200
H758        H  0.24531777  0.87492561  0.03888325     0.15200
H759        H  0.36035442  0.67081600  0.46224728     0.15200
H760        H  0.36035234  0.67081140  0.03978075     0.15200
H761        H  0.31570246  0.81696194  0.35531115     0.13500
H762        H  0.34630537  0.75602602  0.35344755     0.13500
H763        H  0.31569327  0.81694182  0.14672166     0.13500
H764        H  0.34629982  0.75600659  0.14858546     0.13500
H765        H  0.33926103  0.82355673  0.00101800     0.26700
H766        H  0.39020667  0.77381429  0.00101886     0.26700
N767        N  0.16687613  0.81339035  0.25101712    -0.36000
N768        N  0.20949885  0.84613560  0.31119212    -0.56600
N769        N  0.25271170  0.88223943  0.25101599    -0.36000
N770        N  0.20949872  0.84613287  0.19084167    -0.56600
C771        C  0.15509871  0.79563451  0.28247466     0.27500
C772        C  0.15509669  0.79563460  0.21956127     0.27500
C773        C  0.27374050  0.87798564  0.28319839     0.27500
C774        C  0.27374215  0.87798108  0.21883739     0.27500
C775        C  0.18558412  0.82873165  0.33378886     0.36200
C776        C  0.23382706  0.86018079  0.33596592     0.36200
C777        C  0.18558331  0.82872944  0.16824518     0.36200
C778        C  0.23382910  0.86017452  0.16606826     0.36200
C779        C  0.13688535  0.76564641  0.27103732    -0.21300
C780        C  0.13688389  0.76564658  0.23100135    -0.21300
C781        C  0.30731120  0.86789052  0.27122466    -0.21300
C782        C  0.30731209  0.86788722  0.23081827    -0.21300
C783        C  0.19534564  0.82979882  0.37258972    -0.22400
C784        C  0.22679958  0.84771702  0.37367466    -0.22400
C785        C  0.19534621  0.82979372  0.12944522    -0.22400
C786        C  0.22680169  0.84770915  0.12836080    -0.22400
C787        C  0.15625929  0.80919064  0.32018270    -0.17700
C788        C  0.15625799  0.80918909  0.18185132    -0.17700
C789        C  0.26317267  0.88131766  0.17873374    -0.17700
C790        C  0.26316865  0.88132606  0.32329981    -0.17700
H791        H  0.12524996  0.74528144  0.28888587     0.15200
H792        H  0.12524738  0.74528176  0.21315465     0.15200
H793        H  0.32929360  0.86023582  0.28978923     0.15200
H794        H  0.32929522  0.86022891  0.21225872     0.15200
H795        H  0.18310164  0.81570982  0.39673516     0.13500
H796        H  0.24401734  0.84630969  0.39861048     0.13500
H797        H  0.18310214  0.81570410  0.10530079     0.13500
H798        H  0.24401985  0.84629950  0.10342670     0.13500
H799        H  0.17649677  0.83917831  0.25101598     0.26700
H800        H  0.22621365  0.89014418  0.25101334     0.26700
C801        C  0.07629249  0.84420834  0.37647897     0.87100
C802        C  0.08333768  0.81893777  0.41090816    -0.53200
C803        C  0.09740167  0.78650892  0.39997454     0.10000
C804        C  0.09684453  0.78212204  0.35415597     0.20900
C805        C  0.11068189  0.84480596  0.35320865    -0.53900
C806        C  0.12227537  0.81224787  0.34177348     0.10100
C807        C  0.04963101  0.82571522  0.35080516    -0.53400
C808        C  0.05990908  0.79360393  0.33776363     0.10700
H809        H  0.07982670  0.82759174  0.44095399     0.15200
H810        H  0.10162693  0.75512600  0.34411689     0.00900
H811        H  0.12494108  0.86906200  0.34654083     0.15500
H812        H  0.02515608  0.83837198  0.34147453     0.15300
C813        C  0.07629207  0.84420139  0.12554102     0.87100
C814        C  0.11068111  0.84480070  0.14881404    -0.53200
C815        C  0.12227513  0.81224352  0.16025523     0.10000
C816        C  0.09684540  0.78211648  0.14787433     0.20900
C817        C  0.08333743  0.81893016  0.09111626    -0.53900
C818        C  0.09740246  0.78650238  0.10205499     0.10100
C819        C  0.04963059  0.82570881  0.15121522    -0.53400
C820        C  0.05990922  0.79359809  0.16426220     0.10700
H821        H  0.12493940  0.86905739  0.15547994     0.15200
H822        H  0.10162893  0.75512083  0.15791715     0.00900
H823        H  0.07982540  0.82758306  0.06106917     0.15500
H824        H  0.02515532  0.83836562  0.16054192     0.15300
C825        C  0.42388622  0.65572982  0.12554909     0.87100
C826        C  0.38949810  0.65513044  0.14882178    -0.53200
C827        C  0.37790459  0.68768781  0.16025962     0.10000
C828        C  0.40333350  0.71781473  0.14787568     0.20900
C829        C  0.41683894  0.68100086  0.09112152    -0.53900
C830        C  0.40277461  0.71342868  0.10205708     0.10100
C831        C  0.45054851  0.67422280  0.15122224    -0.53400
C832        C  0.44026986  0.70633352  0.16426554     0.10700
H833        H  0.37524004  0.63087375  0.15548972     0.15200
H834        H  0.39855065  0.74481074  0.15791462     0.00900
H835        H  0.42034894  0.67234779  0.06107522     0.15500
H836        H  0.47502404  0.66156632  0.16055131     0.15300
C837        C  0.42388202  0.65573724  0.37648822     0.87100
C838        C  0.41684061  0.68100866  0.41091439    -0.53200
C839        C  0.40277751  0.71343793  0.39997728     0.10000
C840        C  0.40333271  0.71782440  0.35415796     0.20900
C841        C  0.38949136  0.65514134  0.35321793    -0.53900
C842        C  0.37789931  0.68769986  0.34177883     0.10100
C843        C  0.45054339  0.67422812  0.35081248    -0.53400
C844        C  0.44026703  0.70633987  0.33776723     0.10700
H845        H  0.42035275  0.67235483  0.44096117     0.15200
H846        H  0.39855137  0.74482055  0.34411535     0.00900
H847        H  0.37523048  0.63088606  0.34655259     0.15500
H848        H  0.47501719  0.66156959  0.34148383     0.15300
O849        O  0.45374714  0.75327768  0.29120699    -0.71200
O850        O  0.01259240  0.79300843  0.21111810    -0.71400
O851        O  0.45374744  0.75327362  0.21081959    -0.71300
O852        O  0.01259273  0.79301204  0.29090387    -0.71300
O853        O  0.04643025  0.74666308  0.29121068    -0.71300
O854        O  0.48758572  0.70692516  0.21112558    -0.71300
O855        O  0.04643075  0.74666007  0.21082314    -0.71200
O856        O  0.48758465  0.70692869  0.29091160    -0.71400
V857        V  0.48397062  0.77233340  0.25101223     1.35200
V858        V  0.01620713  0.72760376  0.25101770     1.35200
C859        C  0.46123888  0.72327374  0.30540654     0.78000
C860        C  0.03893830  0.77666379  0.19662324     0.78100
C861        C  0.46124017  0.72326896  0.19662569     0.78000
C862        C  0.03893819  0.77666809  0.30540397     0.77900
N863        N  0.33330086  0.68655025  0.25101977    -0.36000
N864        N  0.29067927  0.65380269  0.19084556    -0.56600
N865        N  0.24746512  0.61770361  0.25102073    -0.36000
N866        N  0.29067404  0.65381594  0.31119604    -0.56600
C867        C  0.34508307  0.70430192  0.21956116     0.27500
C868        C  0.34507779  0.70430975  0.28247464     0.27500
C869        C  0.22643567  0.62195639  0.21883861     0.27500
C870        C  0.22643526  0.62196263  0.28319957     0.27500
C871        C  0.31459665  0.67120288  0.16824862     0.36200
C872        C  0.26635111  0.63975772  0.16607141     0.36200
C873        C  0.31458934  0.67121923  0.33379252     0.36200
C874        C  0.26634653  0.63976970  0.33596955     0.36200
C875        C  0.36329667  0.73429038  0.23099673    -0.21300
C876        C  0.36329322  0.73429530  0.27103269    -0.21300
C877        C  0.19286508  0.63205152  0.23081284    -0.21300
C878        C  0.19286498  0.63205582  0.27121932    -0.21300
C879        C  0.30483688  0.67013369  0.12944733    -0.22400
C880        C  0.27338146  0.65221847  0.12836215    -0.22400
C881        C  0.30482882  0.67015074  0.37259315    -0.22400
C882        C  0.27337513  0.65223182  0.37367817    -0.22400
C883        C  0.34392231  0.69074291  0.18185416    -0.17700
C884        C  0.34391524  0.69075818  0.32018572    -0.17700
C885        C  0.23700516  0.61862438  0.32330281    -0.17700
C886        C  0.23700739  0.61861508  0.17873715    -0.17700
H887        H  0.37493462  0.75465316  0.21314741     0.15200
H888        H  0.37492883  0.75466146  0.28887844     0.15200
H889        H  0.17088222  0.63970563  0.21224866     0.15200
H890        H  0.17088183  0.63971297  0.28977944     0.15200
H891        H  0.31708300  0.68422015  0.10530141     0.13500
H892        H  0.25616482  0.65362683  0.10342554     0.13500
H893        H  0.31707397  0.68423824  0.39673841     0.13500
H894        H  0.25615876  0.65363673  0.39861416     0.13500
H895        H  0.32367943  0.66076403  0.25102323     0.26700
H896        H  0.27396285  0.60979864  0.25102328     0.26700
C897        C  0.06412881  0.87998200  0.11739685    -0.12700
C898        C  0.05143698  0.90895224  0.12081703    -0.14300
C899        C  0.09105746  0.55137290  0.13107330    -0.12700
C900        C  0.12000021  0.56412237  0.13454359    -0.14300
C901        C  0.43604977  0.61994937  0.11740810    -0.12700
C902        C  0.44874283  0.59097922  0.12082765    -0.14300
C903        C  0.40912443  0.94855619  0.13106578    -0.12700
C904        C  0.38018251  0.93580479  0.13453571    -0.14300
C905        C  0.11999958  0.56412608  0.36748579    -0.12700
C906        C  0.09105662  0.55137629  0.37095085    -0.14300
C907        C  0.05143470  0.90895934  0.38119184    -0.12700
C908        C  0.06412865  0.87998977  0.38461587    -0.14300
C909        C  0.38017332  0.93582445  0.36748613    -0.12700
C910        C  0.40911685  0.94857279  0.37095167    -0.14300
C911        C  0.44873816  0.59098624  0.38120517    -0.12700
C912        C  0.43604430  0.61995544  0.38462912    -0.14300
O913        O  0.47522094  0.54262256  0.90922016    -0.71200
O914        O  0.02495654  0.95731945  0.90921347    -0.71400
O915        O  0.04399453  0.52546369  0.90687175    -0.71300
O916        O  0.45618297  0.97447893  0.90687209    -0.71300
O917        O  0.45739344  0.97519958  0.84294628    -0.71300
O918        O  0.04277705  0.52475342  0.84294597    -0.71300
O919        O  0.02555277  0.95604867  0.84528704    -0.71200
O920        O  0.47461763  0.54390367  0.84529390    -0.71400
V921        V  0.50008870  0.49997125  0.90680783     1.35200
V922        V  0.00008533  0.99997627  0.84535601     1.35200
C923        C  0.46654939  0.55787588  0.87806855     0.78000
C924        C  0.03362420  0.94207088  0.87805960     0.78100
C925        C  0.05798675  0.53349538  0.87409610     0.78000
C926        C  0.44218718  0.96645263  0.87409655     0.77900
O927        O  0.47521857  0.54261813  0.59280486    -0.71200
O928        O  0.02496128  0.95731895  0.59279978    -0.71400
O929        O  0.45618618  0.97447171  0.59514536    -0.71300
O930        O  0.04399367  0.52546494  0.59514931    -0.71300
O931        O  0.04278318  0.52473890  0.65907501    -0.71300
O932        O  0.45739934  0.97518622  0.65907116    -0.71300
O933        O  0.02555747  0.95603512  0.65672611    -0.71200
O934        O  0.47462483  0.54389049  0.65673132    -0.71400
V935        V  0.50008998  0.49996832  0.59521119     1.35200
V936        V  0.00009120  0.99996281  0.65666299     1.35200
C937        C  0.46655234  0.55786744  0.62395880     0.78000
C938        C  0.03362853  0.94206397  0.62395193     0.78100
C939        C  0.44219254  0.96644073  0.62792061     0.78000
C940        C  0.05798877  0.53348984  0.62792577     0.77900
N941        N  0.18672784  0.66672474  0.50102020    -0.36000
N942        N  0.15398664  0.70937346  0.56119124    -0.56600
N943        N  0.11786610  0.75260221  0.50101644    -0.36000
N944        N  0.15398247  0.70937554  0.94084679    -0.56600
C945        C  0.20449017  0.65492752  0.53247504     0.27500
C946        C  0.20448657  0.65492618  0.96956566     0.27500
C947        C  0.12211182  0.77361365  0.53319633     0.27500
C948        C  0.12210976  0.77361615  0.96883639     0.27500
C949        C  0.17140695  0.68545800  0.58378875     0.36200
C950        C  0.13995585  0.73371529  0.58596255     0.36200
C951        C  0.17140061  0.68545965  0.91825093     0.36200
C952        C  0.13995291  0.73371924  0.91607352     0.36200
C953        C  0.23448991  0.63667423  0.52103861    -0.21300
C954        C  0.23448768  0.63667335  0.98100244    -0.21300
C955        C  0.13218511  0.80715898  0.52121954    -0.21300
C956        C  0.13218357  0.80716062  0.98081295    -0.21300
C957        C  0.17037365  0.69523394  0.62258448    -0.22400
C958        C  0.15245386  0.72669702  0.62366491    -0.22400
C959        C  0.17036735  0.69523710  0.87945484    -0.22400
C960        C  0.15245031  0.72670152  0.87837236    -0.22400
C961        C  0.19092847  0.65611130  0.57018159    -0.17700
C962        C  0.19092190  0.65611190  0.93185933    -0.17700
C963        C  0.11877895  0.76305402  0.92873438    -0.17700
C964        C  0.11878069  0.76304928  0.57329849    -0.17700
H965        H  0.25485860  0.62500573  0.53888983     0.15200
H966        H  0.25485477  0.62500460  0.96315173     0.15200
H967        H  0.13982374  0.82912448  0.53978297     0.15200
H968        H  0.13982152  0.82912744  0.96224953     0.15200
H969        H  0.18448343  0.68298470  0.64672490     0.13500
H970        H  0.15387693  0.74391983  0.64858657     0.13500
H971        H  0.18447624  0.68298808  0.85531566     0.13500
H972        H  0.15387529  0.74392542  0.85345045     0.13500
H973        H  0.16091711  0.67638224  0.50102031     0.26700
H974        H  0.10997196  0.72612497  0.50101654     0.26700
C975        C  0.34436553  0.92368937  0.87558340     0.87100
C976        C  0.34494155  0.88932113  0.89885987    -0.53200
C977        C  0.31234979  0.87778867  0.91027412     0.10000
C978        C  0.28221979  0.90324757  0.89787103     0.20900
C979        C  0.31909171  0.91668121  0.84113809    -0.53900
C980        C  0.28663054  0.90267540  0.85205684     0.10100
C981        C  0.32585102  0.95036074  0.90123670    -0.53400
C982        C  0.29371409  0.94013859  0.91426281     0.10700
H983        H  0.36920408  0.87503128  0.90554318     0.15200
H984        H  0.25519859  0.89851611  0.90789695     0.00900
H985        H  0.32776820  0.92017123  0.81109714     0.15500
H986        H  0.33851716  0.97480127  0.91057341     0.15300
C987        C  0.34437281  0.92367152  0.62644327     0.87100
C988        C  0.31910190  0.91666353  0.66089072    -0.53200
C989        C  0.28663775  0.90266167  0.64997450     0.10000
C990        C  0.28222253  0.90323634  0.60416060     0.20900
C991        C  0.34494320  0.88930457  0.60316769    -0.53900
C992        C  0.31234907  0.87777566  0.59175649     0.10100
C993        C  0.32585746  0.95034582  0.60079135    -0.53400
C994        C  0.29371823  0.94012736  0.58776826     0.10700
H995        H  0.32778164  0.92015311  0.69093069     0.15200
H996        H  0.25520045  0.89850662  0.59413439     0.00900
H997        H  0.36920365  0.87501282  0.59648294     0.15500
H998        H  0.33852432  0.97478621  0.59145374     0.15300
C999        C  0.15580948  0.57625564  0.62644998     0.87100
C1000       C  0.18108242  0.58326250  0.66089692    -0.53200
C1001       C  0.21354520  0.59726605  0.64997974     0.10000
C1002       C  0.21795768  0.59669299  0.60416564     0.20900
C1003       C  0.15523695  0.61062392  0.60317352    -0.53900
C1004       C  0.18783006  0.62215420  0.59176144     0.10100
C1005       C  0.17432342  0.54958289  0.60079794    -0.53400
C1006       C  0.20646146  0.55980264  0.58777342     0.10700
H1007       H  0.17240430  0.57977360  0.69093742     0.15200
H1008       H  0.24497942  0.60142219  0.59413994     0.00900
H1009       H  0.13097578  0.62491557  0.59648890     0.15500
H1010       H  0.16165610  0.52514316  0.59146058     0.15300
C1011       C  0.15580769  0.57626062  0.87558407     0.87100
C1012       C  0.15523312  0.61062689  0.89886119    -0.53200
C1013       C  0.18782556  0.62215755  0.91027669     0.10000
C1014       C  0.21795462  0.59669961  0.89787355     0.20900
C1015       C  0.18108067  0.58327100  0.84113968    -0.53900
C1016       C  0.21354245  0.59727534  0.85205941     0.10100
C1017       C  0.17432257  0.54958686  0.90123715    -0.53400
C1018       C  0.20645993  0.55980765  0.91426408     0.10700
H1019       H  0.13097109  0.62491649  0.90554442     0.15200
H1020       H  0.24497619  0.60143001  0.90790043     0.00900
H1021       H  0.17240345  0.57978196  0.81109871     0.15500
H1022       H  0.16165643  0.52514564  0.91057320     0.15300
O1023       O  0.24675711  0.95366375  0.54121057    -0.71200
O1024       O  0.20702647  0.51253414  0.96112842    -0.71400
O1025       O  0.24675603  0.95366823  0.96082404    -0.71300
O1026       O  0.20702762  0.51253065  0.54090919    -0.71300
O1027       O  0.25341952  0.54627091  0.54121318    -0.71300
O1028       O  0.29314754  0.98740904  0.96112805    -0.71300
O1029       O  0.25341817  0.54627483  0.96082629    -0.71200
O1030       O  0.29314893  0.98740425  0.54090811    -0.71400
V1031       V  0.22770195  0.98389805  0.50101813     1.35200
V1032       V  0.27247325  0.51604098  0.50101907     1.35200
C1033       C  0.27678168  0.96110534  0.55540755     0.78000
C1034       C  0.22339435  0.53883218  0.94662802     0.78100
C1035       C  0.27677968  0.96111191  0.94662667     0.78000
C1036       C  0.22339571  0.53882787  0.55541038     0.77900
N1037       N  0.31345001  0.83321298  0.50101621    -0.36000
N1038       N  0.34619697  0.79056909  0.94084408    -0.56600
N1039       N  0.38231189  0.74733690  0.50101741    -0.36000
N1040       N  0.34618786  0.79055794  0.56118942    -0.59000
C1041       C  0.29569053  0.84501313  0.96956070     0.27500
C1042       C  0.29568701  0.84500668  0.53247005     0.27500
C1043       C  0.37806773  0.72632626  0.96883658     0.27500
C1044       C  0.37806568  0.72632235  0.53319650     0.27500
C1045       C  0.32877807  0.81448617  0.91824728     0.36200
C1046       C  0.36022721  0.76622757  0.91607187     0.36200
C1047       C  0.32876827  0.81447189  0.58378598     0.36200
C1048       C  0.36021913  0.76621481  0.58596173     0.36200
C1049       C  0.26568860  0.86326359  0.98099616    -0.21300
C1050       C  0.26568652  0.86325956  0.52103235    -0.21300
C1051       C  0.36799268  0.69278096  0.98081174    -0.21300
C1052       C  0.36799149  0.69277851  0.52121837    -0.21300
C1053       C  0.32981197  0.80471179  0.87945112    -0.22400
C1054       C  0.34773014  0.77324798  0.87836967    -0.22400
C1055       C  0.32980199  0.80469367  0.62258189    -0.22400
C1056       C  0.34772155  0.77323053  0.62366339    -0.22400
C1057       C  0.30925506  0.84383171  0.93185508    -0.17700
C1058       C  0.30924833  0.84382008  0.57017741    -0.17700
C1059       C  0.38139579  0.73688304  0.57329900    -0.17700
C1060       C  0.38140038  0.73689165  0.92873488    -0.17700
H1061       H  0.24532075  0.87493280  0.96314462     0.15200
H1062       H  0.24531775  0.87492563  0.53888324     0.15200
H1063       H  0.36035441  0.67081607  0.96224725     0.15200
H1064       H  0.36035232  0.67081143  0.53978082     0.15200
H1065       H  0.31570252  0.81696196  0.85531106     0.13500
H1066       H  0.34630528  0.75602602  0.85344754     0.13500
H1067       H  0.31569328  0.81694189  0.64672171     0.13500
H1068       H  0.34629981  0.75600661  0.64858555     0.13500
H1069       H  0.33926106  0.82355659  0.50101803     0.26700
H1070       H  0.39020665  0.77381403  0.50101881     0.26700
N1071       N  0.16687605  0.81339037  0.75101707    -0.36000
N1072       N  0.20949886  0.84613558  0.81119209    -0.56600
N1073       N  0.25271173  0.88223948  0.75101599    -0.36000
N1074       N  0.20949879  0.84613276  0.69084170    -0.56600
C1075       C  0.15509862  0.79563455  0.78247461     0.27500
C1076       C  0.15509667  0.79563457  0.71956124     0.27500
C1077       C  0.27374049  0.87798573  0.78319839     0.27500
C1078       C  0.27374216  0.87798105  0.71883739     0.27500
C1079       C  0.18558413  0.82873160  0.83378883     0.36200
C1080       C  0.23382710  0.86018072  0.83596591     0.36200
C1081       C  0.18558338  0.82872935  0.66824520     0.36200
C1082       C  0.23382909  0.86017455  0.66606828     0.36200
C1083       C  0.13688536  0.76564637  0.77103729    -0.21300
C1084       C  0.13688392  0.76564653  0.73100132    -0.21300
C1085       C  0.30731119  0.86789058  0.77122469    -0.21300
C1086       C  0.30731211  0.86788722  0.73081830    -0.21300
C1087       C  0.19534563  0.82979879  0.87258971    -0.22400
C1088       C  0.22679963  0.84771691  0.87367466    -0.22400
C1089       C  0.19534621  0.82979376  0.62944524    -0.22400
C1090       C  0.22680166  0.84770925  0.62836082    -0.22400
C1091       C  0.15625927  0.80919065  0.82018265    -0.17700
C1092       C  0.15625802  0.80918904  0.68185128    -0.17700
C1093       C  0.26317266  0.88131767  0.67873375    -0.17700
C1094       C  0.26316862  0.88132609  0.82329981    -0.17700
H1095       H  0.12525000  0.74528137  0.78888583     0.15200
H1096       H  0.12524742  0.74528171  0.71315462     0.15200
H1097       H  0.32929354  0.86023584  0.78978930     0.15200
H1098       H  0.32929527  0.86022888  0.71225880     0.15200
H1099       H  0.18310150  0.81570989  0.89673515     0.13500
H1100       H  0.24401737  0.84630963  0.89861051     0.13500
H1101       H  0.18310214  0.81570419  0.60530080     0.13500
H1102       H  0.24401982  0.84629963  0.60342674     0.13500
H1103       H  0.17649671  0.83917832  0.75101592     0.26700
H1104       H  0.22621368  0.89014427  0.75101330     0.26700
C1105       C  0.07629248  0.84420832  0.87647896     0.87100
C1106       C  0.08333768  0.81893777  0.91090818    -0.53200
C1107       C  0.09740170  0.78650892  0.89997455     0.10000
C1108       C  0.09684456  0.78212202  0.85415594     0.20900
C1109       C  0.11068189  0.84480595  0.85320863    -0.53900
C1110       C  0.12227538  0.81224785  0.84177347     0.10100
C1111       C  0.04963101  0.82571520  0.85080515    -0.53400
C1112       C  0.05990908  0.79360392  0.83776360     0.10700
H1113       H  0.07982666  0.82759176  0.94095402     0.15200
H1114       H  0.10162696  0.75512598  0.84411683     0.00900
H1115       H  0.12494107  0.86906198  0.84654077     0.15500
H1116       H  0.02515602  0.83837195  0.84147460     0.15300
C1117       C  0.07629208  0.84420146  0.62554108     0.87100
C1118       C  0.11068116  0.84480076  0.64881404    -0.53200
C1119       C  0.12227516  0.81224356  0.66025521     0.10000
C1120       C  0.09684539  0.78211654  0.64787434     0.20900
C1121       C  0.08333735  0.81893022  0.59111630    -0.53900
C1122       C  0.09740242  0.78650244  0.60205499     0.10100
C1123       C  0.04963063  0.82570891  0.65121533    -0.53400
C1124       C  0.05990925  0.79359817  0.66426228     0.10700
H1125       H  0.12493948  0.86905743  0.65547992     0.15200
H1126       H  0.10162892  0.75512088  0.65791711     0.00900
H1127       H  0.07982529  0.82758312  0.56106922     0.15500
H1128       H  0.02515539  0.83836574  0.66054207     0.15300
C1129       C  0.42388625  0.65572988  0.62554905     0.87100
C1130       C  0.38949814  0.65513050  0.64882178    -0.53200
C1131       C  0.37790463  0.68768786  0.66025967     0.10000
C1132       C  0.40333352  0.71781476  0.64787568     0.20900
C1133       C  0.41683894  0.68100092  0.59112150    -0.53900
C1134       C  0.40277462  0.71342872  0.60205708     0.10100
C1135       C  0.45054854  0.67422287  0.65122220    -0.53400
C1136       C  0.44026989  0.70633358  0.66426551     0.10700
H1137       H  0.37524007  0.63087383  0.65548966     0.15200
H1138       H  0.39855065  0.74481077  0.65791459     0.00900
H1139       H  0.42034894  0.67234788  0.56107519     0.15500
H1140       H  0.47502408  0.66156640  0.66055126     0.15300
C1141       C  0.42388203  0.65573729  0.87648830     0.87100
C1142       C  0.41684064  0.68100875  0.91091444    -0.53200
C1143       C  0.40277753  0.71343801  0.89997731     0.10000
C1144       C  0.40333269  0.71782445  0.85415802     0.20900
C1145       C  0.38949137  0.65514137  0.85321805    -0.53900
C1146       C  0.37789930  0.68769989  0.84177893     0.10100
C1147       C  0.45054336  0.67422816  0.85081252    -0.53400
C1148       C  0.44026698  0.70633989  0.83776723     0.10700
H1149       H  0.42035275  0.67235497  0.94096123     0.15200
H1150       H  0.39855135  0.74482060  0.84411543     0.00900
H1151       H  0.37523058  0.63088608  0.84655261     0.15500
H1152       H  0.47501715  0.66156963  0.84148384     0.15300
O1153       O  0.45374713  0.75327768  0.79120698    -0.71200
O1154       O  0.01259242  0.79300846  0.71111815    -0.71400
O1155       O  0.45374748  0.75327368  0.71081956    -0.71300
O1156       O  0.01259269  0.79301201  0.79090391    -0.71300
O1157       O  0.04643021  0.74666304  0.79121069    -0.71300
O1158       O  0.48758569  0.70692515  0.71112560    -0.71300
O1159       O  0.04643075  0.74666009  0.71082316    -0.71200
O1160       O  0.48758456  0.70692864  0.79091153    -0.71400
V1161       V  0.48397061  0.77233339  0.75101225     1.35200
V1162       V  0.01620711  0.72760373  0.75101770     1.35200
C1163       C  0.46123882  0.72327372  0.80540649     0.78000
C1164       C  0.03893832  0.77666383  0.69662330     0.78100
C1165       C  0.46124018  0.72326900  0.69662567     0.78000
C1166       C  0.03893816  0.77666804  0.80540399     0.77900
N1167       N  0.33330085  0.68655031  0.75101982    -0.36000
N1168       N  0.29067925  0.65380277  0.69084566    -0.56600
N1169       N  0.24746514  0.61770366  0.75102081    -0.36000
N1170       N  0.29067404  0.65381594  0.81119602    -0.56600
C1171       C  0.34508308  0.70430196  0.71956123     0.27500
C1172       C  0.34507778  0.70430977  0.78247468     0.27500
C1173       C  0.22643568  0.62195645  0.71883867     0.27500
C1174       C  0.22643526  0.62196268  0.78319963     0.27500
C1175       C  0.31459665  0.67120294  0.66824871     0.36200
C1176       C  0.26635108  0.63975781  0.66607151     0.36200
C1177       C  0.31458932  0.67121926  0.83379250     0.36200
C1178       C  0.26634658  0.63976965  0.83596956     0.36200
C1179       C  0.36329673  0.73429038  0.73099680    -0.21300
C1180       C  0.36329323  0.73429530  0.77103275    -0.21300
C1181       C  0.19286511  0.63205158  0.73081287    -0.21300
C1182       C  0.19286498  0.63205588  0.77121936    -0.21300
C1183       C  0.30483686  0.67013377  0.62944745    -0.22400
C1184       C  0.27338143  0.65221858  0.62836228    -0.22400
C1185       C  0.30482879  0.67015081  0.87259311    -0.22400
C1186       C  0.27337515  0.65223183  0.87367815    -0.22400
C1187       C  0.34392233  0.69074295  0.68185423    -0.17700
C1188       C  0.34391527  0.69075817  0.82018572    -0.17700
C1189       C  0.23700521  0.61862434  0.82330286    -0.17700
C1190       C  0.23700741  0.61861509  0.67873724    -0.17700
H1191       H  0.37493475  0.75465315  0.71314752     0.15200
H1192       H  0.37492884  0.75466144  0.78887849     0.15200
H1193       H  0.17088225  0.63970562  0.71224864     0.15200
H1194       H  0.17088177  0.63971295  0.78977945     0.15200
H1195       H  0.31708303  0.68422016  0.60530151     0.13500
H1196       H  0.25616481  0.65362691  0.60342565     0.13500
H1197       H  0.31707396  0.68423830  0.89673837     0.13500
H1198       H  0.25615880  0.65363670  0.89861416     0.13500
H1199       H  0.32367944  0.66076406  0.75102329     0.26700
H1200       H  0.27396278  0.60979865  0.75102339     0.26700
C1201       C  0.06412882  0.87998206  0.61739687    -0.12700
C1202       C  0.05143699  0.90895230  0.62081698    -0.14300
C1203       C  0.09105747  0.55137284  0.63107345    -0.12700
C1204       C  0.12000023  0.56412234  0.63454364    -0.14300
C1205       C  0.43604981  0.61994942  0.61740806    -0.12700
C1206       C  0.44874286  0.59097927  0.62082759    -0.14300
C1207       C  0.40912443  0.94855627  0.63106583    -0.12700
C1208       C  0.38018252  0.93580484  0.63453576    -0.14300
C1209       C  0.11999961  0.56412608  0.86748578    -0.12700
C1210       C  0.09105667  0.55137625  0.87095089    -0.14300
C1211       C  0.05143472  0.90895935  0.88119184    -0.12700
C1212       C  0.06412864  0.87998975  0.88461583    -0.14300
C1213       C  0.38017334  0.93582430  0.86748611    -0.12700
C1214       C  0.40911690  0.94857262  0.87095168    -0.14300
C1215       C  0.44873811  0.59098626  0.88120520    -0.12700
C1216       C  0.43604429  0.61995547  0.88462925    -0.14300
O1217       O  0.97522093  0.04262250  0.40922020    -0.71200
O1218       O  0.52495653  0.45731936  0.40921351    -0.71400
O1219       O  0.54399455  0.02546365  0.40687168    -0.71300
O1220       O  0.95618302  0.47447883  0.40687207    -0.71300
O1221       O  0.95739342  0.47519960  0.34294626    -0.71300
O1222       O  0.54277702  0.02475345  0.34294590    -0.71300
O1223       O  0.52555278  0.45604859  0.34528707    -0.71200
O1224       O  0.97461768  0.04390366  0.34529394    -0.71400
V1225       V  0.00008872  0.99997121  0.40680785     1.35200
V1226       V  0.50008538  0.49997622  0.34535603     1.35200
C1227       C  0.96654939  0.05787582  0.37806858     0.78000
C1228       C  0.53362419  0.44207080  0.37805964     0.78100
C1229       C  0.55798673  0.03349541  0.37409603     0.78000
C1230       C  0.94218718  0.46645264  0.37409654     0.77900
O1231       O  0.97521855  0.04261809  0.09280491    -0.71200
O1232       O  0.52496129  0.45731891  0.09279982    -0.71400
O1233       O  0.95618624  0.47447167  0.09514538    -0.71300
O1234       O  0.54399365  0.02546488  0.09514924    -0.71300
O1235       O  0.54278318  0.02473889  0.15907494    -0.71300
O1236       O  0.95739933  0.47518633  0.15907119    -0.71300
O1237       O  0.52555747  0.45603510  0.15672614    -0.71200
O1238       O  0.97462487  0.04389051  0.15673137    -0.71400
V1239       V  0.00008997  0.99996829  0.09521122     1.35200
V1240       V  0.50009118  0.49996279  0.15666302     1.35200
C1241       C  0.96655234  0.05786744  0.12395884     0.78000
C1242       C  0.53362854  0.44206393  0.12395197     0.78100
C1243       C  0.94219255  0.46644079  0.12792062     0.78000
C1244       C  0.55798874  0.03348982  0.12792567     0.77900
N1245       N  0.68672781  0.16672476  0.00102018    -0.36000
N1246       N  0.65398668  0.20937351  0.06119119    -0.56600
N1247       N  0.61786609  0.25260226  0.00101642    -0.36000
N1248       N  0.65398243  0.20937548  0.44084676    -0.56600
C1249       C  0.70449023  0.15492748  0.03247505     0.27500
C1250       C  0.70448645  0.15492619  0.46956565     0.27500
C1251       C  0.62211181  0.27361361  0.03319633     0.27500
C1252       C  0.62210978  0.27361619  0.46883639     0.27500
C1253       C  0.67140696  0.18545801  0.08378872     0.36200
C1254       C  0.63995591  0.23371531  0.08596250     0.36200
C1255       C  0.67140062  0.18545966  0.41825090     0.36200
C1256       C  0.63995289  0.23371922  0.41607352     0.36200
C1257       C  0.73448997  0.13667424  0.02103866    -0.21300
C1258       C  0.73448755  0.13667333  0.48100247    -0.21300
C1259       C  0.63218514  0.30715896  0.02121955    -0.21300
C1260       C  0.63218356  0.30716067  0.48081295    -0.21300
C1261       C  0.67037364  0.19523389  0.12258444    -0.22400
C1262       C  0.65245388  0.22669699  0.12366487    -0.22400
C1263       C  0.67036737  0.19523715  0.37945481    -0.22400
C1264       C  0.65245033  0.22670156  0.37837238    -0.22400
C1265       C  0.69092845  0.15611131  0.07018154    -0.17700
C1266       C  0.69092187  0.15611188  0.43185930    -0.17700
C1267       C  0.61877897  0.26305402  0.42873439    -0.17700
C1268       C  0.61878071  0.26304926  0.07329847    -0.17700
H1269       H  0.75485866  0.12500581  0.03888997     0.15200
H1270       H  0.75485462  0.12500459  0.46315175     0.15200
H1271       H  0.63982380  0.32912445  0.03978302     0.15200
H1272       H  0.63982149  0.32912748  0.46224951     0.15200
H1273       H  0.68448337  0.18298463  0.14672490     0.13500
H1274       H  0.65387694  0.24391976  0.14858654     0.13500
H1275       H  0.68447621  0.18298819  0.35531558     0.13500
H1276       H  0.65387535  0.24392551  0.35345052     0.13500
H1277       H  0.66091749  0.17638213  0.00102028     0.26700
H1278       H  0.60997190  0.22612468  0.00101659     0.26700
C1279       C  0.84436553  0.42368944  0.37558343     0.87100
C1280       C  0.84494155  0.38932119  0.39885989    -0.53200
C1281       C  0.81234979  0.37778872  0.41027413     0.10000
C1282       C  0.78221978  0.40324761  0.39787102     0.20900
C1283       C  0.81909173  0.41668128  0.34113809    -0.53900
C1284       C  0.78663055  0.40267546  0.35205683     0.10100
C1285       C  0.82585104  0.45036080  0.40123675    -0.53400
C1286       C  0.79371409  0.44013865  0.41426281     0.10700
H1287       H  0.86920409  0.37503136  0.40554323     0.15200
H1288       H  0.75519856  0.39851618  0.40789691     0.00900
H1289       H  0.82776826  0.42017127  0.31109714     0.15500
H1290       H  0.83851720  0.47480131  0.41057352     0.15300
C1291       C  0.84437280  0.42367158  0.12644321     0.87100
C1292       C  0.81910188  0.41666360  0.16089067    -0.53200
C1293       C  0.78663774  0.40266170  0.14997447     0.10000
C1294       C  0.78222254  0.40323635  0.10416060     0.20900
C1295       C  0.84494322  0.38930464  0.10316763    -0.53900
C1296       C  0.81234909  0.37777566  0.09175649     0.10100
C1297       C  0.82585745  0.45034585  0.10079129    -0.53400
C1298       C  0.79371823  0.44012738  0.08776822     0.10700
H1299       H  0.82778161  0.42015318  0.19093063     0.15200
H1300       H  0.75520048  0.39850656  0.09413444     0.00900
H1301       H  0.86920368  0.37501297  0.09648279     0.15500
H1302       H  0.83852430  0.47478622  0.09145366     0.15300
C1303       C  0.65580946  0.07625562  0.12644998     0.87100
C1304       C  0.68108235  0.08326252  0.16089693    -0.53200
C1305       C  0.71354511  0.09726610  0.14997972     0.10000
C1306       C  0.71795763  0.09669299  0.10416560     0.20900
C1307       C  0.65523691  0.11062389  0.10317348    -0.53900
C1308       C  0.68783001  0.12215417  0.09176136     0.10100
C1309       C  0.67432345  0.04958287  0.10079796    -0.53400
C1310       C  0.70646148  0.05980261  0.08777344     0.10700
H1311       H  0.67240423  0.07977357  0.19093746     0.15200
H1312       H  0.74497937  0.10142221  0.09413996     0.00900
H1313       H  0.63097573  0.12491558  0.09648900     0.15500
H1314       H  0.66165615  0.02514314  0.09146061     0.15300
C1315       C  0.65580771  0.07626059  0.37558403     0.87100
C1316       C  0.65523314  0.11062685  0.39886112    -0.53200
C1317       C  0.68782556  0.12215755  0.41027663     0.10000
C1318       C  0.71795461  0.09669962  0.39787349     0.20900
C1319       C  0.68108067  0.08327096  0.34113964    -0.53900
C1320       C  0.71354245  0.09727534  0.35205935     0.10100
C1321       C  0.67432262  0.04958683  0.40123707    -0.53400
C1322       C  0.70645994  0.05980766  0.41426406     0.10700
H1323       H  0.63097109  0.12491640  0.40554439     0.15200
H1324       H  0.74497617  0.10143000  0.40790035     0.00900
H1325       H  0.67240346  0.07978185  0.31109868     0.15500
H1326       H  0.66165652  0.02514558  0.41057307     0.15300
O1327       O  0.74675709  0.45366379  0.04121060    -0.71200
O1328       O  0.70702654  0.01253412  0.46112840    -0.71400
O1329       O  0.74675602  0.45366825  0.46082402    -0.71300
O1330       O  0.70702765  0.01253062  0.04090919    -0.71300
O1331       O  0.75341956  0.04627088  0.04121320    -0.71300
O1332       O  0.79314754  0.48740906  0.46112807    -0.71300
O1333       O  0.75341815  0.04627492  0.46082638    -0.71200
O1334       O  0.79314890  0.48740431  0.04090813    -0.71400
V1335       V  0.72770191  0.48389806  0.00101814     1.35200
V1336       V  0.77247329  0.01604099  0.00101905     1.35200
C1337       C  0.77678166  0.46110539  0.05540756     0.78000
C1338       C  0.72339437  0.03883223  0.44662806     0.78100
C1339       C  0.77677967  0.46111194  0.44662666     0.78000
C1340       C  0.72339574  0.03882783  0.05541039     0.77900
N1341       N  0.81345007  0.33321301  0.00101616    -0.36000
N1342       N  0.84619695  0.29056907  0.44084413    -0.56600
N1343       N  0.88231187  0.24733684  0.00101743    -0.36000
N1344       N  0.84618784  0.29055787  0.06118938    -0.59000
C1345       C  0.79569056  0.34501321  0.46956073     0.27500
C1346       C  0.79568704  0.34500671  0.03247003     0.27500
C1347       C  0.87806774  0.22632622  0.46883656     0.27500
C1348       C  0.87806570  0.22632236  0.03319648     0.27500
C1349       C  0.82877806  0.31448619  0.41824732     0.36200
C1350       C  0.86022724  0.26622758  0.41607190     0.36200
C1351       C  0.82876825  0.31447183  0.08378594     0.36200
C1352       C  0.86021913  0.26621477  0.08596167     0.36200
C1353       C  0.76568863  0.36326366  0.48099619    -0.21300
C1354       C  0.76568652  0.36325953  0.02103236    -0.21300
C1355       C  0.86799268  0.19278094  0.48081170    -0.21300
C1356       C  0.86799152  0.19277849  0.02121835    -0.21300
C1357       C  0.82981194  0.30471180  0.37945117    -0.22400
C1358       C  0.84773016  0.27324801  0.37836970    -0.22400
C1359       C  0.82980196  0.30469359  0.12258183    -0.22400
C1360       C  0.84772154  0.27323045  0.12366332    -0.22400
C1361       C  0.80925510  0.34383176  0.43185513    -0.17700
C1362       C  0.80924837  0.34382007  0.07017738    -0.17700
C1363       C  0.88139579  0.23688299  0.07329899    -0.17700
C1364       C  0.88140042  0.23689165  0.42873488    -0.17700
H1365       H  0.74532077  0.37493289  0.46314463     0.15200
H1366       H  0.74531772  0.37492556  0.03888326     0.15200
H1367       H  0.86035440  0.17081606  0.46224718     0.15200
H1368       H  0.86035238  0.17081141  0.03978077     0.15200
H1369       H  0.81570248  0.31696198  0.35531110     0.13500
H1370       H  0.84630534  0.25602607  0.35344756     0.13500
H1371       H  0.81569328  0.31694177  0.14672167     0.13500
H1372       H  0.84629978  0.25600652  0.14858543     0.13500
H1373       H  0.83926102  0.32355664  0.00101800     0.26700
H1374       H  0.89020670  0.27381424  0.00101886     0.26700
N1375       N  0.66687608  0.31339030  0.25101710    -0.36000
N1376       N  0.70949885  0.34613567  0.31119212    -0.56600
N1377       N  0.75271171  0.38223942  0.25101598    -0.36000
N1378       N  0.70949876  0.34613281  0.19084167    -0.56600
C1379       C  0.65509875  0.29563455  0.28247464     0.27500
C1380       C  0.65509671  0.29563461  0.21956128     0.27500
C1381       C  0.77374053  0.37798573  0.28319838     0.27500
C1382       C  0.77374214  0.37798106  0.21883738     0.27500
C1383       C  0.68558412  0.32873170  0.33378886     0.36200
C1384       C  0.73382710  0.36018079  0.33596592     0.36200
C1385       C  0.68558335  0.32872937  0.16824518     0.36200
C1386       C  0.73382913  0.36017449  0.16606826     0.36200
C1387       C  0.63688540  0.26564639  0.27103733    -0.21300
C1388       C  0.63688390  0.26564657  0.23100137    -0.21300
C1389       C  0.80731124  0.36789062  0.27122465    -0.21300
C1390       C  0.80731210  0.36788721  0.23081826    -0.21300
C1391       C  0.69534563  0.32979887  0.37258973    -0.22400
C1392       C  0.72679962  0.34771700  0.37367467    -0.22400
C1393       C  0.69534623  0.32979368  0.12944523    -0.22400
C1394       C  0.72680171  0.34770912  0.12836081    -0.22400
C1395       C  0.65625930  0.30919067  0.32018268    -0.17700
C1396       C  0.65625800  0.30918905  0.18185130    -0.17700
C1397       C  0.76317265  0.38131769  0.17873374    -0.17700
C1398       C  0.76316868  0.38132608  0.32329981    -0.17700
H1399       H  0.62524998  0.24528145  0.28888587     0.15200
H1400       H  0.62524732  0.24528179  0.21315469     0.15200
H1401       H  0.82929363  0.36023594  0.28978925     0.15200
H1402       H  0.82929521  0.36022884  0.21225871     0.15200
H1403       H  0.68310158  0.31570991  0.39673518     0.13500
H1404       H  0.74401739  0.34630965  0.39861048     0.13500
H1405       H  0.68310213  0.31570411  0.10530080     0.13500
H1406       H  0.74401983  0.34629953  0.10342669     0.13500
H1407       H  0.67649681  0.33917859  0.25101594     0.26700
H1408       H  0.72621365  0.39014410  0.25101333     0.26700
C1409       C  0.57629249  0.34420828  0.37647897     0.87100
C1410       C  0.58333769  0.31893771  0.41090816    -0.53200
C1411       C  0.59740169  0.28650887  0.39997454     0.10000
C1412       C  0.59684454  0.28212199  0.35415596     0.20900
C1413       C  0.61068189  0.34480591  0.35320866    -0.53900
C1414       C  0.62227539  0.31224783  0.34177349     0.10100
C1415       C  0.54963100  0.32571518  0.35080517    -0.53400
C1416       C  0.55990906  0.29360390  0.33776363     0.10700
H1417       H  0.57982670  0.32759169  0.44095398     0.15200
H1418       H  0.60162692  0.25512594  0.34411688     0.00900
H1419       H  0.62494106  0.36906195  0.34654084     0.15500
H1420       H  0.52515605  0.33837193  0.34147457     0.15300
C1421       C  0.57629206  0.34420138  0.12554101     0.87100
C1422       C  0.61068113  0.34480068  0.14881400    -0.53200
C1423       C  0.62227515  0.31224348  0.16025518     0.10000
C1424       C  0.59684540  0.28211645  0.14787431     0.20900
C1425       C  0.58333734  0.31893013  0.09111623    -0.53900
C1426       C  0.59740242  0.28650236  0.10205496     0.10100
C1427       C  0.54963059  0.32570882  0.15121523    -0.53400
C1428       C  0.55990923  0.29359811  0.16426222     0.10700
H1429       H  0.62493942  0.36905736  0.15547993     0.15200
H1430       H  0.60162892  0.25512077  0.15791709     0.00900
H1431       H  0.57982526  0.32758300  0.06106912     0.15500
H1432       H  0.52515530  0.33836565  0.16054191     0.15300
C1433       C  0.92388624  0.15572989  0.12554908     0.87100
C1434       C  0.88949811  0.15513054  0.14882175    -0.53200
C1435       C  0.87790459  0.18768791  0.16025961     0.10000
C1436       C  0.90333350  0.21781480  0.14787568     0.20900
C1437       C  0.91683895  0.18100090  0.09112152    -0.53900
C1438       C  0.90277464  0.21342873  0.10205708     0.10100
C1439       C  0.95054851  0.17422288  0.15122221    -0.53400
C1440       C  0.94026986  0.20633358  0.16426553     0.10700
H1441       H  0.87524004  0.13087388  0.15548964     0.15200
H1442       H  0.89855067  0.24481083  0.15791461     0.00900
H1443       H  0.92034892  0.17234783  0.06107523     0.15500
H1444       H  0.97502406  0.16156643  0.16055125     0.15300
C1445       C  0.92388205  0.15573723  0.37648824     0.87100
C1446       C  0.91684063  0.18100865  0.41091441    -0.53200
C1447       C  0.90277751  0.21343794  0.39997731     0.10000
C1448       C  0.90333271  0.21782441  0.35415801     0.20900
C1449       C  0.88949139  0.15514131  0.35321798    -0.53900
C1450       C  0.87789932  0.18769985  0.34177889     0.10100
C1451       C  0.95054339  0.17422813  0.35081249    -0.53400
C1452       C  0.94026702  0.20633988  0.33776726     0.10700
H1453       H  0.92035274  0.17235481  0.44096119     0.15200
H1454       H  0.89855136  0.24482057  0.34411539     0.00900
H1455       H  0.87523055  0.13088603  0.34655259     0.15500
H1456       H  0.97501718  0.16156964  0.34148377     0.15300
O1457       O  0.95374714  0.25327765  0.29120700    -0.71200
O1458       O  0.51259239  0.29300842  0.21111808    -0.71400
O1459       O  0.95374747  0.25327359  0.21081962    -0.71300
O1460       O  0.51259271  0.29301205  0.29090386    -0.71300
O1461       O  0.54643022  0.24666306  0.29121069    -0.71300
O1462       O  0.98758575  0.20692513  0.21112556    -0.71300
O1463       O  0.54643079  0.24666009  0.21082316    -0.71200
O1464       O  0.98758461  0.20692863  0.29091155    -0.71400
V1465       V  0.98397062  0.27233336  0.25101224     1.35200
V1466       V  0.51620716  0.22760373  0.25101770     1.35200
C1467       C  0.96123886  0.22327370  0.30540653     0.78000
C1468       C  0.53893833  0.27666380  0.19662325     0.78100
C1469       C  0.96124019  0.22326894  0.19662570     0.78000
C1470       C  0.53893816  0.27666807  0.30540398     0.77900
N1471       N  0.83330080  0.18655025  0.25101977    -0.36000
N1472       N  0.79067929  0.15380266  0.19084555    -0.56600
N1473       N  0.74746517  0.11770372  0.25102071    -0.36000
N1474       N  0.79067401  0.15381600  0.31119603    -0.56600
C1475       C  0.84508306  0.20430200  0.21956115     0.27500
C1476       C  0.84507784  0.20430976  0.28247466     0.27500
C1477       C  0.72643566  0.12195648  0.21883860     0.27500
C1478       C  0.72643527  0.12196263  0.28319956     0.27500
C1479       C  0.81459663  0.17120292  0.16824861     0.36200
C1480       C  0.76635111  0.13975772  0.16607141     0.36200
C1481       C  0.81458935  0.17121921  0.33379253     0.36200
C1482       C  0.76634655  0.13976969  0.33596954     0.36200
C1483       C  0.86329672  0.23429040  0.23099675    -0.21300
C1484       C  0.86329329  0.23429528  0.27103272    -0.21300
C1485       C  0.69286505  0.13205150  0.23081283    -0.21300
C1486       C  0.69286497  0.13205576  0.27121931    -0.21300
C1487       C  0.80483684  0.17013372  0.12944733    -0.22400
C1488       C  0.77338139  0.15221857  0.12836218    -0.22400
C1489       C  0.80482884  0.17015070  0.37259317    -0.22400
C1490       C  0.77337517  0.15223176  0.37367817    -0.22400
C1491       C  0.84392229  0.19074295  0.18185417    -0.17700
C1492       C  0.84391527  0.19075813  0.32018573    -0.17700
C1493       C  0.73700519  0.11862437  0.32330280    -0.17700
C1494       C  0.73700740  0.11861508  0.17873716    -0.17700
H1495       H  0.87493472  0.25465320  0.21314746     0.15200
H1496       H  0.87492893  0.25466142  0.28887848     0.15200
H1497       H  0.67088214  0.13970551  0.21224865     0.15200
H1498       H  0.67088182  0.13971284  0.28977947     0.15200
H1499       H  0.81708301  0.18422008  0.10530136     0.13500
H1500       H  0.75616471  0.15362699  0.10342561     0.13500
H1501       H  0.81707397  0.18423820  0.39673845     0.13500
H1502       H  0.75615879  0.15363668  0.39861414     0.13500
H1503       H  0.82367947  0.16076431  0.25102322     0.26700
H1504       H  0.77396283  0.10979880  0.25102325     0.26700
C1505       C  0.56412881  0.37998198  0.11739685    -0.12700
C1506       C  0.55143698  0.40895223  0.12081704    -0.14300
C1507       C  0.59105743  0.05137285  0.13107333    -0.12700
C1508       C  0.62000022  0.06412228  0.13454359    -0.14300
C1509       C  0.93604980  0.11994943  0.11740812    -0.12700
C1510       C  0.94874285  0.09097926  0.12082760    -0.14300
C1511       C  0.90912442  0.44855636  0.13106578    -0.12700
C1512       C  0.88018251  0.43580495  0.13453571    -0.14300
C1513       C  0.61999960  0.06412611  0.36748579    -0.12700
C1514       C  0.59105663  0.05137632  0.37095087    -0.14300
C1515       C  0.55143472  0.40895928  0.38119185    -0.12700
C1516       C  0.56412867  0.37998971  0.38461587    -0.14300
C1517       C  0.88017333  0.43582438  0.36748615    -0.12700
C1518       C  0.90911687  0.44857271  0.37095168    -0.14300
C1519       C  0.94873815  0.09098621  0.38120519    -0.12700
C1520       C  0.93604433  0.11995542  0.38462912    -0.14300
O1521       O  0.97522091  0.04262257  0.90922015    -0.71200
O1522       O  0.52495653  0.45731944  0.90921348    -0.71400
O1523       O  0.54399454  0.02546370  0.90687174    -0.71300
O1524       O  0.95618298  0.47447890  0.90687208    -0.71300
O1525       O  0.95739349  0.47519952  0.84294627    -0.71300
O1526       O  0.54277707  0.02475336  0.84294597    -0.71300
O1527       O  0.52555278  0.45604869  0.84528704    -0.71200
O1528       O  0.97461763  0.04390368  0.84529389    -0.71400
V1529       V  0.00008868  0.99997126  0.90680781     1.35200
V1530       V  0.50008532  0.49997626  0.84535603     1.35200
C1531       C  0.96654934  0.05787588  0.87806854     0.78000
C1532       C  0.53362420  0.44207089  0.87805959     0.78100
C1533       C  0.55798675  0.03349537  0.87409610     0.78000
C1534       C  0.94218720  0.46645260  0.87409655     0.77900
O1535       O  0.97521861  0.04261815  0.59280486    -0.71200
O1536       O  0.52496132  0.45731894  0.59279979    -0.71400
O1537       O  0.95618621  0.47447165  0.59514539    -0.71300
O1538       O  0.54399369  0.02546493  0.59514928    -0.71300
O1539       O  0.54278315  0.02473889  0.65907498    -0.71300
O1540       O  0.95739933  0.47518628  0.65907120    -0.71300
O1541       O  0.52555746  0.45603510  0.65672611    -0.71200
O1542       O  0.97462484  0.04389048  0.65673133    -0.71400
V1543       V  0.00008998  0.99996833  0.59521119     1.35200
V1544       V  0.50009117  0.49996282  0.65666299     1.35200
C1545       C  0.96655236  0.05786745  0.62395880     0.78000
C1546       C  0.53362856  0.44206396  0.62395193     0.78100
C1547       C  0.94219256  0.46644072  0.62792065     0.78000
C1548       C  0.55798876  0.03348983  0.62792575     0.77900
N1549       N  0.68672782  0.16672470  0.50102019    -0.36000
N1550       N  0.65398666  0.20937344  0.56119124    -0.56600
N1551       N  0.61786614  0.25260224  0.50101644    -0.36000
N1552       N  0.65398247  0.20937556  0.94084679    -0.56600
C1553       C  0.70449020  0.15492751  0.53247504     0.27500
C1554       C  0.70448659  0.15492624  0.96956565     0.27500
C1555       C  0.62211184  0.27361368  0.53319635     0.27500
C1556       C  0.62210965  0.27361614  0.96883639     0.27500
C1557       C  0.67140700  0.18545800  0.58378874     0.36200
C1558       C  0.63995585  0.23371526  0.58596255     0.36200
C1559       C  0.67140064  0.18545970  0.91825093     0.36200
C1560       C  0.63995290  0.23371928  0.91607353     0.36200
C1561       C  0.73448997  0.13667429  0.52103863    -0.21300
C1562       C  0.73448764  0.13667334  0.98100248    -0.21300
C1563       C  0.63218513  0.30715901  0.52121959    -0.21300
C1564       C  0.63218354  0.30716063  0.98081294    -0.21300
C1565       C  0.67037367  0.19523391  0.62258448    -0.22400
C1566       C  0.65245385  0.22669698  0.62366492    -0.22400
C1567       C  0.67036734  0.19523714  0.87945484    -0.22400
C1568       C  0.65245034  0.22670159  0.87837239    -0.22400
C1569       C  0.69092850  0.15611130  0.57018158    -0.17700
C1570       C  0.69092193  0.15611193  0.93185931    -0.17700
C1571       C  0.61877887  0.26305403  0.92873438    -0.17700
C1572       C  0.61878069  0.26304925  0.57329849    -0.17700
H1573       H  0.75485870  0.12500588  0.53888990     0.15200
H1574       H  0.75485474  0.12500460  0.96315179     0.15200
H1575       H  0.63982377  0.32912454  0.53978301     0.15200
H1576       H  0.63982154  0.32912743  0.96224951     0.15200
H1577       H  0.68448342  0.18298467  0.64672491     0.13500
H1578       H  0.65387692  0.24391978  0.64858658     0.13500
H1579       H  0.68447613  0.18298811  0.85531562     0.13500
H1580       H  0.65387530  0.24392549  0.85345049     0.13500
H1581       H  0.66091719  0.17638217  0.50102029     0.26700
H1582       H  0.60997200  0.22612497  0.50101652     0.26700
C1583       C  0.84436550  0.42368948  0.87558341     0.87100
C1584       C  0.84494157  0.38932121  0.89885986    -0.53200
C1585       C  0.81234982  0.37778869  0.91027409     0.10000
C1586       C  0.78221979  0.40324757  0.89787102     0.20900
C1587       C  0.81909169  0.41668129  0.84113808    -0.53900
C1588       C  0.78663055  0.40267542  0.85205683     0.10100
C1589       C  0.82585097  0.45036082  0.90123671    -0.53400
C1590       C  0.79371405  0.44013861  0.91426281     0.10700
H1591       H  0.86920415  0.37503141  0.90554317     0.15200
H1592       H  0.75519858  0.39851614  0.90789694     0.00900
H1593       H  0.82776819  0.42017132  0.81109713     0.15500
H1594       H  0.83851708  0.47480138  0.91057343     0.15300
C1595       C  0.84437283  0.42367150  0.62644325     0.87100
C1596       C  0.81910189  0.41666355  0.66089072    -0.53200
C1597       C  0.78663777  0.40266166  0.64997449     0.10000
C1598       C  0.78222256  0.40323632  0.60416060     0.20900
C1599       C  0.84494321  0.38930452  0.60316771    -0.53900
C1600       C  0.81234908  0.37777561  0.59175650     0.10100
C1601       C  0.82585751  0.45034581  0.60079132    -0.53400
C1602       C  0.79371828  0.44012736  0.58776823     0.10700
H1603       H  0.82778161  0.42015319  0.69093068     0.15200
H1604       H  0.75520049  0.39850658  0.59413441     0.00900
H1605       H  0.86920365  0.37501276  0.59648296     0.15500
H1606       H  0.83852437  0.47478621  0.59145375     0.15300
C1607       C  0.65580942  0.07625566  0.62644998     0.87100
C1608       C  0.68108233  0.08326253  0.66089692    -0.53200
C1609       C  0.71354514  0.09726603  0.64997975     0.10000
C1610       C  0.71795763  0.09669295  0.60416563     0.20900
C1611       C  0.65523692  0.11062394  0.60317351    -0.53900
C1612       C  0.68783004  0.12215418  0.59176142     0.10100
C1613       C  0.67432336  0.04958287  0.60079795    -0.53400
C1614       C  0.70646139  0.05980259  0.58777341     0.10700
H1615       H  0.67240415  0.07977368  0.69093743     0.15200
H1616       H  0.74497936  0.10142213  0.59413993     0.00900
H1617       H  0.63097575  0.12491565  0.59648897     0.15500
H1618       H  0.66165601  0.02514311  0.59146066     0.15300
C1619       C  0.65580769  0.07626063  0.87558406     0.87100
C1620       C  0.65523313  0.11062692  0.89886115    -0.53200
C1621       C  0.68782557  0.12215757  0.91027668     0.10000
C1622       C  0.71795461  0.09669962  0.89787356     0.20900
C1623       C  0.68108070  0.08327096  0.84113968    -0.53900
C1624       C  0.71354247  0.09727535  0.85205941     0.10100
C1625       C  0.67432255  0.04958689  0.90123718    -0.53400
C1626       C  0.70645991  0.05980768  0.91426410     0.10700
H1627       H  0.63097110  0.12491654  0.90554432     0.15200
H1628       H  0.74497617  0.10143000  0.90790046     0.00900
H1629       H  0.67240349  0.07978191  0.81109871     0.15500
H1630       H  0.66165641  0.02514569  0.91057326     0.15300
O1631       O  0.74675715  0.45366377  0.54121054    -0.71200
O1632       O  0.70702653  0.01253417  0.96112841    -0.71400
O1633       O  0.74675602  0.45366820  0.96082406    -0.71300
O1634       O  0.70702764  0.01253059  0.54090917    -0.71300
O1635       O  0.75341954  0.04627085  0.54121322    -0.71300
O1636       O  0.79314754  0.48740899  0.96112807    -0.71300
O1637       O  0.75341816  0.04627495  0.96082633    -0.71200
O1638       O  0.79314890  0.48740435  0.54090817    -0.71400
V1639       V  0.72770194  0.48389809  0.50101814     1.35200
V1640       V  0.77247331  0.01604096  0.50101906     1.35200
C1641       C  0.77678170  0.46110539  0.55540756     0.78000
C1642       C  0.72339436  0.03883225  0.94662803     0.78100
C1643       C  0.77677966  0.46111189  0.94662668     0.78000
C1644       C  0.72339571  0.03882781  0.55541038     0.77900
N1645       N  0.81345009  0.33321302  0.50101621    -0.36000
N1646       N  0.84619696  0.29056907  0.94084409    -0.56600
N1647       N  0.88231192  0.24733692  0.50101744    -0.36000
N1648       N  0.84618787  0.29055788  0.56118941    -0.59000
C1649       C  0.79569058  0.34501321  0.96956071     0.27500
C1650       C  0.79568702  0.34500666  0.53247006     0.27500
C1651       C  0.87806774  0.22632624  0.96883657     0.27500
C1652       C  0.87806572  0.22632232  0.53319650     0.27500
C1653       C  0.82877806  0.31448616  0.91824728     0.36200
C1654       C  0.86022724  0.26622756  0.91607186     0.36200
C1655       C  0.82876828  0.31447183  0.58378598     0.36200
C1656       C  0.86021914  0.26621475  0.58596172     0.36200
C1657       C  0.76568866  0.36326369  0.98099618    -0.21300
C1658       C  0.76568652  0.36325953  0.52103236    -0.21300
C1659       C  0.86799271  0.19278094  0.98081174    -0.21300
C1660       C  0.86799152  0.19277849  0.52121833    -0.21300
C1661       C  0.82981198  0.30471178  0.87945112    -0.22400
C1662       C  0.84773019  0.27324799  0.87836964    -0.22400
C1663       C  0.82980200  0.30469362  0.62258188    -0.22400
C1664       C  0.84772156  0.27323047  0.62366337    -0.22400
C1665       C  0.80925508  0.34383173  0.93185508    -0.17700
C1666       C  0.80924834  0.34382002  0.57017742    -0.17700
C1667       C  0.88139580  0.23688298  0.57329901    -0.17700
C1668       C  0.88140041  0.23689165  0.92873487    -0.17700
H1669       H  0.74532079  0.37493288  0.96314464     0.15200
H1670       H  0.74531777  0.37492564  0.53888326     0.15200
H1671       H  0.86035443  0.17081603  0.96224727     0.15200
H1672       H  0.86035237  0.17081139  0.53978076     0.15200
H1673       H  0.81570250  0.31696198  0.85531109     0.13500
H1674       H  0.84630537  0.25602606  0.85344747     0.13500
H1675       H  0.81569330  0.31694183  0.64672170     0.13500
H1676       H  0.84629984  0.25600655  0.64858552     0.13500
H1677       H  0.83926105  0.32355674  0.50101803     0.26700
H1678       H  0.89020668  0.27381401  0.50101889     0.26700
N1679       N  0.66687613  0.31339036  0.75101709    -0.36000
N1680       N  0.70949888  0.34613561  0.81119209    -0.56600
N1681       N  0.75271175  0.38223940  0.75101598    -0.36000
N1682       N  0.70949875  0.34613287  0.69084168    -0.56600
C1683       C  0.65509866  0.29563456  0.78247462     0.27500
C1684       C  0.65509671  0.29563459  0.71956125     0.27500
C1685       C  0.77374052  0.37798567  0.78319838     0.27500
C1686       C  0.77374218  0.37798099  0.71883738     0.27500
C1687       C  0.68558414  0.32873165  0.83378883     0.36200
C1688       C  0.73382708  0.36018080  0.83596591     0.36200
C1689       C  0.68558333  0.32872945  0.66824522     0.36200
C1690       C  0.73382910  0.36017456  0.66606824     0.36200
C1691       C  0.63688532  0.26564642  0.77103727    -0.21300
C1692       C  0.63688389  0.26564658  0.73100130    -0.21300
C1693       C  0.80731122  0.36789055  0.77122469    -0.21300
C1694       C  0.80731213  0.36788719  0.73081830    -0.21300
C1695       C  0.69534566  0.32979883  0.87258970    -0.22400
C1696       C  0.72679961  0.34771702  0.87367465    -0.22400
C1697       C  0.69534619  0.32979375  0.62944526    -0.22400
C1698       C  0.72680163  0.34770923  0.62836078    -0.22400
C1699       C  0.65625929  0.30919066  0.82018267    -0.17700
C1700       C  0.65625801  0.30918910  0.68185131    -0.17700
C1701       C  0.76317270  0.38131763  0.67873373    -0.17700
C1702       C  0.76316866  0.38132608  0.82329980    -0.17700
H1703       H  0.62524994  0.24528145  0.78888583     0.15200
H1704       H  0.62524737  0.24528178  0.71315459     0.15200
H1705       H  0.82929360  0.36023588  0.78978928     0.15200
H1706       H  0.82929532  0.36022892  0.71225881     0.15200
H1707       H  0.68310162  0.31570984  0.89673513     0.13500
H1708       H  0.74401738  0.34630970  0.89861047     0.13500
H1709       H  0.68310210  0.31570409  0.60530090     0.13500
H1710       H  0.74401973  0.34629962  0.60342662     0.13500
H1711       H  0.67649681  0.33917833  0.75101595     0.26700
H1712       H  0.72621371  0.39014421  0.75101331     0.26700
C1713       C  0.57629249  0.34420837  0.87647894     0.87100
C1714       C  0.58333766  0.31893781  0.91090816    -0.53200
C1715       C  0.59740162  0.28650893  0.89997455     0.10000
C1716       C  0.59684451  0.28212205  0.85415596     0.20900
C1717       C  0.61068190  0.34480597  0.85320863    -0.53900
C1718       C  0.62227537  0.31224787  0.84177348     0.10100
C1719       C  0.54963100  0.32571526  0.85080513    -0.53400
C1720       C  0.55990904  0.29360397  0.83776362     0.10700
H1721       H  0.57982672  0.32759183  0.94095398     0.15200
H1722       H  0.60162690  0.25512601  0.84411686     0.00900
H1723       H  0.62494111  0.36906199  0.84654079     0.15500
H1724       H  0.52515605  0.33837203  0.84147450     0.15300
C1725       C  0.57629207  0.34420141  0.62554107     0.87100
C1726       C  0.61068115  0.34480071  0.64881400    -0.53200
C1727       C  0.62227516  0.31224352  0.66025518     0.10000
C1728       C  0.59684538  0.28211649  0.64787434     0.20900
C1729       C  0.58333731  0.31893015  0.59111630    -0.53900
C1730       C  0.59740236  0.28650236  0.60205499     0.10100
C1731       C  0.54963063  0.32570887  0.65121536    -0.53400
C1732       C  0.55990925  0.29359814  0.66426229     0.10700
H1733       H  0.62493946  0.36905739  0.65547990     0.15200
H1734       H  0.60162889  0.25512082  0.65791712     0.00900
H1735       H  0.57982529  0.32758309  0.56106922     0.15500
H1736       H  0.52515539  0.33836570  0.66054212     0.15300
C1737       C  0.92388622  0.15572983  0.62554906     0.87100
C1738       C  0.88949809  0.15513047  0.64882175    -0.53200
C1739       C  0.87790460  0.18768784  0.66025966     0.10000
C1740       C  0.90333353  0.21781473  0.64787569     0.20900
C1741       C  0.91683896  0.18100087  0.59112151    -0.53900
C1742       C  0.90277464  0.21342868  0.60205709     0.10100
C1743       C  0.95054852  0.17422281  0.65122221    -0.53400
C1744       C  0.94026989  0.20633353  0.66426553     0.10700
H1745       H  0.87523997  0.13087382  0.65548960     0.15200
H1746       H  0.89855069  0.24481075  0.65791461     0.00900
H1747       H  0.92034899  0.17234781  0.56107520     0.15500
H1748       H  0.97502406  0.16156633  0.66055127     0.15300
C1749       C  0.92388201  0.15573727  0.87648830     0.87100
C1750       C  0.91684057  0.18100870  0.91091442    -0.53200
C1751       C  0.90277750  0.21343798  0.89997730     0.10000
C1752       C  0.90333270  0.21782442  0.85415799     0.20900
C1753       C  0.88949137  0.15514133  0.85321802    -0.53900
C1754       C  0.87789930  0.18769985  0.84177889     0.10100
C1755       C  0.95054336  0.17422815  0.85081253    -0.53400
C1756       C  0.94026698  0.20633987  0.83776721     0.10700
H1757       H  0.92035267  0.17235489  0.94096120     0.15200
H1758       H  0.89855136  0.24482055  0.84411538     0.00900
H1759       H  0.87523057  0.13088600  0.84655263     0.15500
H1760       H  0.97501715  0.16156961  0.84148389     0.15300
O1761       O  0.95374712  0.25327771  0.79120698    -0.71200
O1762       O  0.51259238  0.29300844  0.71111809    -0.71400
O1763       O  0.95374751  0.25327366  0.71081955    -0.71300
O1764       O  0.51259269  0.29301206  0.79090388    -0.71300
O1765       O  0.54643023  0.24666311  0.79121069    -0.71300
O1766       O  0.98758572  0.20692515  0.71112562    -0.71300
O1767       O  0.54643076  0.24666010  0.71082318    -0.71200
O1768       O  0.98758461  0.20692870  0.79091157    -0.71400
V1769       V  0.98397064  0.27233341  0.75101224     1.35200
V1770       V  0.51620714  0.22760377  0.75101771     1.35200
C1771       C  0.96123883  0.22327375  0.80540649     0.78000
C1772       C  0.53893830  0.27666381  0.69662327     0.78100
C1773       C  0.96124020  0.22326897  0.69662569     0.78000
C1774       C  0.53893815  0.27666810  0.80540400     0.77900
N1775       N  0.83330079  0.18655033  0.75101984    -0.36000
N1776       N  0.79067926  0.15380268  0.69084566    -0.56600
N1777       N  0.74746513  0.11770363  0.75102081    -0.36000
N1778       N  0.79067406  0.15381595  0.81119603    -0.56600
C1779       C  0.84508306  0.20430191  0.71956124     0.27500
C1780       C  0.84507776  0.20430974  0.78247469     0.27500
C1781       C  0.72643568  0.12195638  0.71883866     0.27500
C1782       C  0.72643527  0.12196265  0.78319962     0.27500
C1783       C  0.81459665  0.17120288  0.66824871     0.36200
C1784       C  0.76635109  0.13975772  0.66607151     0.36200
C1785       C  0.81458935  0.17121923  0.83379252     0.36200
C1786       C  0.76634657  0.13976971  0.83596956     0.36200
C1787       C  0.86329675  0.23429032  0.73099679    -0.21300
C1788       C  0.86329325  0.23429526  0.77103273    -0.21300
C1789       C  0.69286510  0.13205154  0.73081286    -0.21300
C1790       C  0.69286498  0.13205584  0.77121935    -0.21300
C1791       C  0.80483687  0.17013372  0.62944744    -0.22400
C1792       C  0.77338145  0.15221851  0.62836227    -0.22400
C1793       C  0.80482884  0.17015076  0.87259313    -0.22400
C1794       C  0.77337517  0.15223183  0.87367816    -0.22400
C1795       C  0.84392232  0.19074291  0.68185425    -0.17700
C1796       C  0.84391526  0.19075817  0.82018574    -0.17700
C1797       C  0.73700518  0.11862440  0.82330286    -0.17700
C1798       C  0.73700741  0.11861503  0.67873723    -0.17700
H1799       H  0.87493475  0.25465307  0.71314747     0.15200
H1800       H  0.87492884  0.25466140  0.78887849     0.15200
H1801       H  0.67088227  0.13970563  0.71224860     0.15200
H1802       H  0.67088182  0.13971298  0.78977947     0.15200
H1803       H  0.81708301  0.18422016  0.60530151     0.13500
H1804       H  0.75616481  0.15362683  0.60342566     0.13500
H1805       H  0.81707401  0.18423824  0.89673839     0.13500
H1806       H  0.75615883  0.15363671  0.89861417     0.13500
H1807       H  0.82367926  0.16076398  0.75102331     0.26700
H1808       H  0.77396288  0.10979863  0.75102340     0.26700
C1809       C  0.56412883  0.37998202  0.61739687    -0.12700
C1810       C  0.55143702  0.40895227  0.62081699    -0.14300
C1811       C  0.59105742  0.05137288  0.63107346    -0.12700
C1812       C  0.62000018  0.06412238  0.63454364    -0.14300
C1813       C  0.93604978  0.11994939  0.61740807    -0.12700
C1814       C  0.94874287  0.09097925  0.62082759    -0.14300
C1815       C  0.90912447  0.44855621  0.63106585    -0.12700
C1816       C  0.88018255  0.43580479  0.63453575    -0.14300
C1817       C  0.61999960  0.06412611  0.86748578    -0.12700
C1818       C  0.59105665  0.05137630  0.87095089    -0.14300
C1819       C  0.55143474  0.40895937  0.88119179    -0.12700
C1820       C  0.56412869  0.37998980  0.88461582    -0.14300
C1821       C  0.88017325  0.43582451  0.86748611    -0.12700
C1822       C  0.90911684  0.44857275  0.87095168    -0.14300
C1823       C  0.94873812  0.09098628  0.88120519    -0.12700
C1824       C  0.93604432  0.11995549  0.88462928    -0.14300
O1825       O  0.97522098  0.54262250  0.40922020    -0.71200
O1826       O  0.52495661  0.95731942  0.40921351    -0.71400
O1827       O  0.54399448  0.52546367  0.40687169    -0.71300
O1828       O  0.95618299  0.97447887  0.40687205    -0.71300
O1829       O  0.95739344  0.97519967  0.34294624    -0.71300
O1830       O  0.54277714  0.52475328  0.34294591    -0.71300
O1831       O  0.52555272  0.95604865  0.34528707    -0.71200
O1832       O  0.97461768  0.54390365  0.34529394    -0.71400
V1833       V  0.00008877  0.49997119  0.40680781     1.35200
V1834       V  0.50008532  0.99997627  0.34535603     1.35200
C1835       C  0.96654942  0.55787584  0.37806859     0.78000
C1836       C  0.53362418  0.94207085  0.37805962     0.78100
C1837       C  0.55798676  0.53349533  0.37409605     0.78000
C1838       C  0.94218718  0.96645269  0.37409651     0.77900
O1839       O  0.97521855  0.54261813  0.09280491    -0.71200
O1840       O  0.52496129  0.95731891  0.09279983    -0.71400
O1841       O  0.95618619  0.97447167  0.09514537    -0.71300
O1842       O  0.54399370  0.52546490  0.09514925    -0.71300
O1843       O  0.54278321  0.52473886  0.15907495    -0.71300
O1844       O  0.95739930  0.97518627  0.15907118    -0.71300
O1845       O  0.52555747  0.95603510  0.15672615    -0.71200
O1846       O  0.97462488  0.54389054  0.15673137    -0.71400
V1847       V  0.00008997  0.49996833  0.09521122     1.35200
V1848       V  0.50009117  0.99996280  0.15666302     1.35200
C1849       C  0.96655234  0.55786747  0.12395884     0.78000
C1850       C  0.53362855  0.94206394  0.12395198     0.78100
C1851       C  0.94219253  0.96644072  0.12792062     0.78000
C1852       C  0.55798881  0.53348980  0.12792569     0.77900
N1853       N  0.68672788  0.66672470  0.00102018    -0.36000
N1854       N  0.65398661  0.70937341  0.06119120    -0.56600
N1855       N  0.61786612  0.75260219  0.00101643    -0.36000
N1856       N  0.65398254  0.70937557  0.44084678    -0.56600
C1857       C  0.70449024  0.65492753  0.03247503     0.27500
C1858       C  0.70448653  0.65492626  0.46956565     0.27500
C1859       C  0.62211180  0.77361365  0.03319634     0.27500
C1860       C  0.62210975  0.77361620  0.46883637     0.27500
C1861       C  0.67140701  0.68545800  0.08378872     0.36200
C1862       C  0.63995586  0.73371526  0.08596251     0.36200
C1863       C  0.67140063  0.68545969  0.41825092     0.36200
C1864       C  0.63995297  0.73371929  0.41607352     0.36200
C1865       C  0.73449003  0.63667432  0.02103863    -0.21300
C1866       C  0.73448761  0.63667337  0.48100242    -0.21300
C1867       C  0.63218515  0.80715895  0.02121956    -0.21300
C1868       C  0.63218363  0.80716062  0.48081291    -0.21300
C1869       C  0.67037371  0.69523391  0.12258444    -0.22400
C1870       C  0.65245384  0.72669694  0.12366489    -0.22400
C1871       C  0.67036727  0.69523710  0.37945481    -0.22400
C1872       C  0.65245034  0.72670158  0.37837237    -0.22400
C1873       C  0.69092854  0.65611131  0.07018154    -0.17700
C1874       C  0.69092186  0.65611189  0.43185931    -0.17700
C1875       C  0.61877895  0.76305402  0.42873439    -0.17700
C1876       C  0.61878070  0.76304925  0.07329846    -0.17700
H1877       H  0.75485871  0.62500590  0.03888995     0.15200
H1878       H  0.75485468  0.62500463  0.46315170     0.15200
H1879       H  0.63982383  0.82912447  0.03978299     0.15200
H1880       H  0.63982164  0.82912743  0.46224947     0.15200
H1881       H  0.68448352  0.68298471  0.14672488     0.13500
H1882       H  0.65387686  0.74391972  0.14858657     0.13500
H1883       H  0.68447597  0.68298802  0.35531555     0.13500
H1884       H  0.65387533  0.74392549  0.35345046     0.13500
H1885       H  0.66091723  0.67638219  0.00102030     0.26700
H1886       H  0.60997205  0.72612492  0.00101660     0.26700
C1887       C  0.84436552  0.92368945  0.37558343     0.87100
C1888       C  0.84494155  0.88932120  0.39885989    -0.53200
C1889       C  0.81234981  0.87778869  0.41027411     0.10000
C1890       C  0.78221979  0.90324758  0.39787101     0.20900
C1891       C  0.81909174  0.91668126  0.34113808    -0.53900
C1892       C  0.78663057  0.90267543  0.35205681     0.10100
C1893       C  0.82585100  0.95036078  0.40123673    -0.53400
C1894       C  0.79371407  0.94013860  0.41426281     0.10700
H1895       H  0.86920410  0.87503139  0.40554326     0.15200
H1896       H  0.75519857  0.89851615  0.40789689     0.00900
H1897       H  0.82776827  0.92017126  0.31109714     0.15500
H1898       H  0.83851713  0.97480131  0.41057344     0.15300
C1899       C  0.84437282  0.92367148  0.12644317     0.87100
C1900       C  0.81910192  0.91666352  0.16089064    -0.53200
C1901       C  0.78663777  0.90266165  0.14997447     0.10000
C1902       C  0.78222251  0.90323633  0.10416062     0.20900
C1903       C  0.84494315  0.88930455  0.10316758    -0.53900
C1904       C  0.81234901  0.87777562  0.09175646     0.10100
C1905       C  0.82585748  0.95034579  0.10079128    -0.53400
C1906       C  0.79371823  0.94012738  0.08776826     0.10700
H1907       H  0.82778166  0.92015315  0.19093058     0.15200
H1908       H  0.75520043  0.89850661  0.09413448     0.00900
H1909       H  0.86920359  0.87501286  0.09648271     0.15500
H1910       H  0.83852439  0.97478613  0.09145363     0.15300
C1911       C  0.65580946  0.57625567  0.12644995     0.87100
C1912       C  0.68108231  0.58326258  0.16089691    -0.53200
C1913       C  0.71354509  0.59726609  0.14997972     0.10000
C1914       C  0.71795767  0.59669295  0.10416561     0.20900
C1915       C  0.65523696  0.61062394  0.10317345    -0.53900
C1916       C  0.68783008  0.62215417  0.09176134     0.10100
C1917       C  0.67432342  0.54958287  0.10079796    -0.53400
C1918       C  0.70646147  0.55980257  0.08777347     0.10700
H1919       H  0.67240411  0.57977373  0.19093742     0.15200
H1920       H  0.74497944  0.60142207  0.09413998     0.00900
H1921       H  0.63097581  0.62491569  0.09648898     0.15500
H1922       H  0.66165606  0.52514315  0.09146060     0.15300
C1923       C  0.65580769  0.57626060  0.37558401     0.87100
C1924       C  0.65523311  0.61062689  0.39886108    -0.53200
C1925       C  0.68782553  0.62215757  0.41027661     0.10000
C1926       C  0.71795458  0.59669961  0.39787350     0.20900
C1927       C  0.68108070  0.58327092  0.34113963    -0.53900
C1928       C  0.71354246  0.59727530  0.35205936     0.10100
C1929       C  0.67432254  0.54958684  0.40123708    -0.53400
C1930       C  0.70645985  0.55980766  0.41426409     0.10700
H1931       H  0.63097104  0.62491643  0.40554433     0.15200
H1932       H  0.74497613  0.60143002  0.40790037     0.00900
H1933       H  0.67240349  0.57978186  0.31109867     0.15500
H1934       H  0.66165639  0.52514560  0.41057307     0.15300
O1935       O  0.74675715  0.95366377  0.04121053    -0.71200
O1936       O  0.70702646  0.51253413  0.46112840    -0.71400
O1937       O  0.74675607  0.95366819  0.46082407    -0.71300
O1938       O  0.70702758  0.51253065  0.04090914    -0.71300
O1939       O  0.75341953  0.54627084  0.04121320    -0.71300
O1940       O  0.79314755  0.98740904  0.46112801    -0.71300
O1941       O  0.75341806  0.54627496  0.46082640    -0.71200
O1942       O  0.79314891  0.98740435  0.04090817    -0.71400
V1943       V  0.72770196  0.98389809  0.00101813     1.35200
V1944       V  0.77247326  0.51604095  0.00101904     1.35200
C1945       C  0.77678167  0.96110540  0.05540758     0.78000
C1946       C  0.72339428  0.53883224  0.44662807     0.78100
C1947       C  0.77677969  0.96111191  0.44662666     0.78000
C1948       C  0.72339571  0.53882782  0.05541038     0.77900
N1949       N  0.81345005  0.83321306  0.00101618    -0.36000
N1950       N  0.84619703  0.79056909  0.44084413    -0.56600
N1951       N  0.88231179  0.74733688  0.00101746    -0.36000
N1952       N  0.84618788  0.79055791  0.06118938    -0.59000
C1953       C  0.79569062  0.84501321  0.46956076     0.27500
C1954       C  0.79568702  0.84500665  0.03247003     0.27500
C1955       C  0.87806778  0.72632618  0.46883656     0.27500
C1956       C  0.87806559  0.72632238  0.03319650     0.27500
C1957       C  0.82877812  0.81448618  0.41824734     0.36200
C1958       C  0.86022726  0.76622754  0.41607189     0.36200
C1959       C  0.82876830  0.81447186  0.08378595     0.36200
C1960       C  0.86021915  0.76621479  0.08596167     0.36200
C1961       C  0.76568863  0.86326364  0.48099617    -0.21300
C1962       C  0.76568647  0.86325943  0.02103234    -0.21300
C1963       C  0.86799272  0.69278091  0.48081174    -0.21300
C1964       C  0.86799143  0.69277851  0.02121834    -0.21300
C1965       C  0.82981199  0.80471179  0.37945118    -0.22400
C1966       C  0.84773014  0.77324795  0.37836970    -0.22400
C1967       C  0.82980206  0.80469365  0.12258184    -0.22400
C1968       C  0.84772161  0.77323051  0.12366333    -0.22400
C1969       C  0.80925513  0.84383176  0.43185514    -0.17700
C1970       C  0.80924827  0.84382002  0.07017741    -0.17700
C1971       C  0.88139579  0.73688301  0.07329900    -0.17700
C1972       C  0.88140044  0.73689163  0.42873488    -0.17700
H1973       H  0.74532074  0.87493277  0.46314460     0.15200
H1974       H  0.74531773  0.87492552  0.03888326     0.15200
H1975       H  0.86035450  0.67081599  0.46224725     0.15200
H1976       H  0.86035226  0.67081141  0.03978074     0.15200
H1977       H  0.81570256  0.81696203  0.35531115     0.13500
H1978       H  0.84630531  0.75602602  0.35344752     0.13500
H1979       H  0.81569337  0.81694183  0.14672168     0.13500
H1980       H  0.84629988  0.75600660  0.14858547     0.13500
H1981       H  0.83926126  0.82355670  0.00101802     0.26700
H1982       H  0.89020658  0.77381424  0.00101889     0.26700
N1983       N  0.66687611  0.81339031  0.25101712    -0.36000
N1984       N  0.70949888  0.84613558  0.31119211    -0.56600
N1985       N  0.75271178  0.88223942  0.25101598    -0.36000
N1986       N  0.70949875  0.84613284  0.19084168    -0.56600
C1987       C  0.65509866  0.79563455  0.28247464     0.27500
C1988       C  0.65509668  0.79563459  0.21956127     0.27500
C1989       C  0.77374056  0.87798563  0.28319838     0.27500
C1990       C  0.77374221  0.87798107  0.21883738     0.27500
C1991       C  0.68558416  0.82873160  0.33378885     0.36200
C1992       C  0.73382707  0.86018082  0.33596589     0.36200
C1993       C  0.68558335  0.82872939  0.16824520     0.36200
C1994       C  0.73382910  0.86017457  0.16606826     0.36200
C1995       C  0.63688528  0.76564643  0.27103729    -0.21300
C1996       C  0.63688387  0.76564657  0.23100132    -0.21300
C1997       C  0.80731128  0.86789053  0.27122466    -0.21300
C1998       C  0.80731216  0.86788723  0.23081826    -0.21300
C1999       C  0.69534569  0.82979878  0.37258971    -0.22400
C2000       C  0.72679962  0.84771702  0.37367462    -0.22400
C2001       C  0.69534622  0.82979372  0.12944524    -0.22400
C2002       C  0.72680167  0.84770921  0.12836079    -0.22400
C2003       C  0.65625929  0.80919063  0.32018270    -0.17700
C2004       C  0.65625800  0.80918907  0.18185131    -0.17700
C2005       C  0.76317270  0.88131768  0.17873375    -0.17700
C2006       C  0.76316868  0.88132608  0.32329979    -0.17700
H2007       H  0.62524987  0.74528148  0.28888583     0.15200
H2008       H  0.62524741  0.74528173  0.21315460     0.15200
H2009       H  0.82929368  0.86023584  0.28978924     0.15200
H2010       H  0.82929530  0.86022892  0.21225871     0.15200
H2011       H  0.68310172  0.81570981  0.39673517     0.13500
H2012       H  0.74401739  0.84630969  0.39861041     0.13500
H2013       H  0.68310212  0.81570410  0.10530082     0.13500
H2014       H  0.74401979  0.84629959  0.10342667     0.13500
H2015       H  0.67649688  0.83917838  0.25101599     0.26700
H2016       H  0.72621372  0.89014418  0.25101334     0.26700
C2017       C  0.57629254  0.84420836  0.37647897     0.87100
C2018       C  0.58333773  0.81893778  0.41090816    -0.53200
C2019       C  0.59740165  0.78650889  0.39997455     0.10000
C2020       C  0.59684452  0.78212201  0.35415598     0.20900
C2021       C  0.61068195  0.84480595  0.35320867    -0.53900
C2022       C  0.62227539  0.81224784  0.34177351     0.10100
C2023       C  0.54963103  0.82571526  0.35080515    -0.53400
C2024       C  0.55990906  0.79360396  0.33776363     0.10700
H2025       H  0.57982682  0.82759180  0.44095398     0.15200
H2026       H  0.60162688  0.75512595  0.34411690     0.00900
H2027       H  0.62494118  0.86906196  0.34654084     0.15500
H2028       H  0.52515610  0.83837205  0.34147451     0.15300
C2029       C  0.57629207  0.84420138  0.12554101     0.87100
C2030       C  0.61068113  0.84480069  0.14881400    -0.53200
C2031       C  0.62227515  0.81224350  0.16025518     0.10000
C2032       C  0.59684538  0.78211647  0.14787431     0.20900
C2033       C  0.58333737  0.81893016  0.09111624    -0.53900
C2034       C  0.59740241  0.78650238  0.10205496     0.10100
C2035       C  0.54963061  0.82570880  0.15121522    -0.53400
C2036       C  0.55990921  0.79359808  0.16426220     0.10700
H2037       H  0.62493942  0.86905738  0.15547988     0.15200
H2038       H  0.60162889  0.75512081  0.15791710     0.00900
H2039       H  0.57982534  0.82758309  0.06106915     0.15500
H2040       H  0.52515534  0.83836559  0.16054189     0.15300
C2041       C  0.92388622  0.65572985  0.12554909     0.87100
C2042       C  0.88949805  0.65513048  0.14882173    -0.53200
C2043       C  0.87790455  0.68768786  0.16025959     0.10000
C2044       C  0.90333352  0.71781476  0.14787568     0.20900
C2045       C  0.91683898  0.68100093  0.09112152    -0.53900
C2046       C  0.90277469  0.71342876  0.10205708     0.10100
C2047       C  0.95054848  0.67422279  0.15122228    -0.53400
C2048       C  0.94026986  0.70633351  0.16426558     0.10700
H2049       H  0.87523997  0.63087382  0.15548969     0.15200
H2050       H  0.89855071  0.74481078  0.15791465     0.00900
H2051       H  0.92034894  0.67234787  0.06107522     0.15500
H2052       H  0.97502402  0.66156627  0.16055136     0.15300
C2053       C  0.92388202  0.65573724  0.37648824     0.87100
C2054       C  0.91684059  0.68100864  0.41091440    -0.53200
C2055       C  0.90277749  0.71343792  0.39997729     0.10000
C2056       C  0.90333271  0.71782441  0.35415798     0.20900
C2057       C  0.88949139  0.65514133  0.35321794    -0.53900
C2058       C  0.87789932  0.68769985  0.34177883     0.10100
C2059       C  0.95054339  0.67422814  0.35081251    -0.53400
C2060       C  0.94026703  0.70633990  0.33776725     0.10700
H2061       H  0.92035271  0.67235481  0.44096119     0.15200
H2062       H  0.89855134  0.74482056  0.34411540     0.00900
H2063       H  0.87523057  0.63088602  0.34655258     0.15500
H2064       H  0.97501718  0.66156962  0.34148387     0.15300
O2065       O  0.95374718  0.75327770  0.29120701    -0.71200
O2066       O  0.51259232  0.79300843  0.21111806    -0.71400
O2067       O  0.95374750  0.75327363  0.21081958    -0.71300
O2068       O  0.51259272  0.79301206  0.29090383    -0.71300
O2069       O  0.54643024  0.74666308  0.29121068    -0.71300
O2070       O  0.98758575  0.70692515  0.21112557    -0.71300
O2071       O  0.54643068  0.74666008  0.21082312    -0.71200
O2072       O  0.98758463  0.70692867  0.29091156    -0.71400
V2073       V  0.98397067  0.77233340  0.25101224     1.35200
V2074       V  0.51620711  0.72760377  0.25101771     1.35200
C2075       C  0.96123889  0.72327375  0.30540653     0.78000
C2076       C  0.53893823  0.77666380  0.19662321     0.78100
C2077       C  0.96124019  0.72326897  0.19662569     0.78000
C2078       C  0.53893818  0.77666810  0.30540397     0.77900
N2079       N  0.83330077  0.68655029  0.25101978    -0.36000
N2080       N  0.79067927  0.65380264  0.19084556    -0.56600
N2081       N  0.74746513  0.61770359  0.25102070    -0.36000
N2082       N  0.79067400  0.65381597  0.31119604    -0.56600
C2083       C  0.84508296  0.70430193  0.21956116     0.27500
C2084       C  0.84507771  0.70430975  0.28247466     0.27500
C2085       C  0.72643556  0.62195640  0.21883860     0.27500
C2086       C  0.72643519  0.62196265  0.28319958     0.27500
C2087       C  0.81459660  0.67120290  0.16824861     0.36200
C2088       C  0.76635108  0.63975769  0.16607143     0.36200
C2089       C  0.81458935  0.67121917  0.33379253     0.36200
C2090       C  0.76634649  0.63976976  0.33596953     0.36200
C2091       C  0.86329656  0.73429040  0.23099673    -0.21300
C2092       C  0.86329312  0.73429533  0.27103269    -0.21300
C2093       C  0.69286500  0.63205152  0.23081288    -0.21300
C2094       C  0.69286493  0.63205585  0.27121937    -0.21300
C2095       C  0.80483680  0.67013373  0.12944732    -0.22400
C2096       C  0.77338141  0.65221848  0.12836219    -0.22400
C2097       C  0.80482883  0.67015069  0.37259314    -0.22400
C2098       C  0.77337510  0.65223186  0.37367815    -0.22400
C2099       C  0.84392227  0.69074291  0.18185416    -0.17700
C2100       C  0.84391525  0.69075813  0.32018572    -0.17700
C2101       C  0.73700516  0.61862440  0.32330281    -0.17700
C2102       C  0.73700732  0.61861510  0.17873717    -0.17700
H2103       H  0.87493459  0.75465312  0.21314740     0.15200
H2104       H  0.87492883  0.75466143  0.28887845     0.15200
H2105       H  0.67088212  0.63970561  0.21224871     0.15200
H2106       H  0.67088181  0.63971301  0.28977954     0.15200
H2107       H  0.81708288  0.68422015  0.10530134     0.13500
H2108       H  0.75616473  0.65362682  0.10342561     0.13500
H2109       H  0.81707399  0.68423816  0.39673842     0.13500
H2110       H  0.75615873  0.65363677  0.39861413     0.13500
H2111       H  0.82367937  0.66076394  0.25102325     0.26700
H2112       H  0.77396256  0.60979870  0.25102321     0.26700
C2113       C  0.56412879  0.87998199  0.11739686    -0.12700
C2114       C  0.55143700  0.90895224  0.12081702    -0.14300
C2115       C  0.59105748  0.55137286  0.13107335    -0.12700
C2116       C  0.62000023  0.56412237  0.13454358    -0.14300
C2117       C  0.93604982  0.61994943  0.11740809    -0.12700
C2118       C  0.94874290  0.59097929  0.12082763    -0.14300
C2119       C  0.90912446  0.94855618  0.13106579    -0.12700
C2120       C  0.88018255  0.93580475  0.13453569    -0.14300
C2121       C  0.61999960  0.56412608  0.36748576    -0.12700
C2122       C  0.59105666  0.55137626  0.37095090    -0.14300
C2123       C  0.55143468  0.90895932  0.38119181    -0.12700
C2124       C  0.56412871  0.87998979  0.38461586    -0.14300
C2125       C  0.88017330  0.93582447  0.36748618    -0.12700
C2126       C  0.90911687  0.94857277  0.37095168    -0.14300
C2127       C  0.94873816  0.59098623  0.38120520    -0.12700
C2128       C  0.93604429  0.61995544  0.38462914    -0.14300
O2129       O  0.97522102  0.54262257  0.90922016    -0.71200
O2130       O  0.52495664  0.95731948  0.90921348    -0.71400
O2131       O  0.54399447  0.52546373  0.90687175    -0.71300
O2132       O  0.95618291  0.97447894  0.90687201    -0.71300
O2133       O  0.95739345  0.97519956  0.84294620    -0.71300
O2134       O  0.54277705  0.52475340  0.84294597    -0.71300
O2135       O  0.52555270  0.95604863  0.84528704    -0.71200
O2136       O  0.97461767  0.54390367  0.84529390    -0.71400
V2137       V  0.00008874  0.49997124  0.90680783     1.35200
V2138       V  0.50008534  0.99997626  0.84535603     1.35200
C2139       C  0.96654943  0.55787589  0.87806855     0.78000
C2140       C  0.53362420  0.94207086  0.87805960     0.78100
C2141       C  0.55798675  0.53349536  0.87409611     0.78000
C2142       C  0.94218717  0.96645261  0.87409648     0.77900
O2143       O  0.97521857  0.54261812  0.59280490    -0.71200
O2144       O  0.52496130  0.95731897  0.59279978    -0.71400
O2145       O  0.95618615  0.97447175  0.59514535    -0.71300
O2146       O  0.54399373  0.52546493  0.59514928    -0.71300
O2147       O  0.54278319  0.52473889  0.65907498    -0.71300
O2148       O  0.95739937  0.97518621  0.65907116    -0.71300
O2149       O  0.52555740  0.95603510  0.65672611    -0.71200
O2150       O  0.97462486  0.54389051  0.65673136    -0.71400
V2151       V  0.00008995  0.49996832  0.59521123     1.35200
V2152       V  0.50009116  0.99996281  0.65666299     1.35200
C2153       C  0.96655236  0.55786745  0.62395883     0.78000
C2154       C  0.53362851  0.94206397  0.62395193     0.78100
C2155       C  0.94219252  0.96644074  0.62792061     0.78000
C2156       C  0.55798882  0.53348981  0.62792576     0.77900
N2157       N  0.68672795  0.66672475  0.50102021    -0.36000
N2158       N  0.65398662  0.70937343  0.56119124    -0.56600
N2159       N  0.61786610  0.75260219  0.50101644    -0.36000
N2160       N  0.65398256  0.70937560  0.94084680    -0.56600
C2161       C  0.70449027  0.65492754  0.53247504     0.27500
C2162       C  0.70448654  0.65492621  0.96956566     0.27500
C2163       C  0.62211181  0.77361366  0.53319634     0.27500
C2164       C  0.62210972  0.77361615  0.96883639     0.27500
C2165       C  0.67140701  0.68545801  0.58378875     0.36200
C2166       C  0.63995585  0.73371528  0.58596255     0.36200
C2167       C  0.67140064  0.68545967  0.91825093     0.36200
C2168       C  0.63995297  0.73371929  0.91607353     0.36200
C2169       C  0.73448999  0.63667423  0.52103859    -0.21300
C2170       C  0.73448768  0.63667339  0.98100246    -0.21300
C2171       C  0.63218515  0.80715896  0.52121953    -0.21300
C2172       C  0.63218362  0.80716059  0.98081293    -0.21300
C2173       C  0.67037371  0.69523397  0.62258447    -0.22400
C2174       C  0.65245383  0.72669700  0.62366492    -0.22400
C2175       C  0.67036731  0.69523708  0.87945482    -0.22400
C2176       C  0.65245034  0.72670154  0.87837236    -0.22400
C2177       C  0.69092857  0.65611132  0.57018160    -0.17700
C2178       C  0.69092190  0.65611189  0.93185933    -0.17700
C2179       C  0.61877890  0.76305399  0.92873438    -0.17700
C2180       C  0.61878070  0.76304928  0.57329850    -0.17700
H2181       H  0.75485867  0.62500569  0.53888981     0.15200
H2182       H  0.75485480  0.62500465  0.96315178     0.15200
H2183       H  0.63982382  0.82912445  0.53978296     0.15200
H2184       H  0.63982162  0.82912739  0.96224952     0.15200
H2185       H  0.68448354  0.68298478  0.64672489     0.13500
H2186       H  0.65387683  0.74391978  0.64858659     0.13500
H2187       H  0.68447608  0.68298796  0.85531561     0.13500
H2188       H  0.65387525  0.74392541  0.85345043     0.13500
H2189       H  0.66091721  0.67638225  0.50102033     0.26700
H2190       H  0.60997204  0.72612503  0.50101654     0.26700
C2191       C  0.84436553  0.92368938  0.87558341     0.87100
C2192       C  0.84494154  0.88932115  0.89885988    -0.53200
C2193       C  0.81234980  0.87778867  0.91027411     0.10000
C2194       C  0.78221979  0.90324757  0.89787102     0.20900
C2195       C  0.81909174  0.91668118  0.84113809    -0.53900
C2196       C  0.78663056  0.90267540  0.85205683     0.10100
C2197       C  0.82585100  0.95036075  0.90123669    -0.53400
C2198       C  0.79371408  0.94013859  0.91426281     0.10700
H2199       H  0.86920407  0.87503130  0.90554321     0.15200
H2200       H  0.75519860  0.89851613  0.90789692     0.00900
H2201       H  0.82776828  0.92017119  0.81109715     0.15500
H2202       H  0.83851714  0.97480129  0.91057335     0.15300
C2203       C  0.84437278  0.92367151  0.62644327     0.87100
C2204       C  0.81910188  0.91666353  0.66089072    -0.53200
C2205       C  0.78663773  0.90266168  0.64997450     0.10000
C2206       C  0.78222249  0.90323637  0.60416060     0.20900
C2207       C  0.84494314  0.88930458  0.60316768    -0.53900
C2208       C  0.81234900  0.87777567  0.59175648     0.10100
C2209       C  0.82585745  0.95034581  0.60079136    -0.53400
C2210       C  0.79371821  0.94012740  0.58776830     0.10700
H2211       H  0.82778162  0.92015314  0.69093068     0.15200
H2212       H  0.75520043  0.89850667  0.59413439     0.00900
H2213       H  0.86920358  0.87501284  0.59648293     0.15500
H2214       H  0.83852434  0.97478617  0.59145375     0.15300
C2215       C  0.65580946  0.57625567  0.62644995     0.87100
C2216       C  0.68108235  0.58326250  0.66089691    -0.53200
C2217       C  0.71354515  0.59726603  0.64997975     0.10000
C2218       C  0.71795768  0.59669296  0.60416566     0.20900
C2219       C  0.65523698  0.61062396  0.60317349    -0.53900
C2220       C  0.68783010  0.62215421  0.59176143     0.10100
C2221       C  0.67432338  0.54958291  0.60079791    -0.53400
C2222       C  0.70646142  0.55980262  0.58777342     0.10700
H2223       H  0.67240417  0.57977364  0.69093740     0.15200
H2224       H  0.74497943  0.60142211  0.59414001     0.00900
H2225       H  0.63097582  0.62491564  0.59648886     0.15500
H2226       H  0.66165602  0.52514319  0.59146054     0.15300
C2227       C  0.65580769  0.57626064  0.87558405     0.87100
C2228       C  0.65523311  0.61062690  0.89886116    -0.53200
C2229       C  0.68782555  0.62215755  0.91027669     0.10000
C2230       C  0.71795460  0.59669959  0.89787358     0.20900
C2231       C  0.68108070  0.58327097  0.84113968    -0.53900
C2232       C  0.71354247  0.59727532  0.85205942     0.10100
C2233       C  0.67432252  0.54958688  0.90123716    -0.53400
C2234       C  0.70645987  0.55980765  0.91426412     0.10700
H2235       H  0.63097106  0.62491649  0.90554439     0.15200
H2236       H  0.74497616  0.60143002  0.90790048     0.00900
H2237       H  0.67240350  0.57978192  0.81109870     0.15500
H2238       H  0.66165633  0.52514569  0.91057318     0.15300
O2239       O  0.74675716  0.95366378  0.54121056    -0.71200
O2240       O  0.70702645  0.51253409  0.96112838    -0.71400
O2241       O  0.74675601  0.95366823  0.96082402    -0.71300
O2242       O  0.70702761  0.51253064  0.54090917    -0.71300
O2243       O  0.75341951  0.54627089  0.54121322    -0.71300
O2244       O  0.79314754  0.98740902  0.96112805    -0.71300
O2245       O  0.75341810  0.54627486  0.96082632    -0.71200
O2246       O  0.79314897  0.98740430  0.54090814    -0.71400
V2247       V  0.72770198  0.98389806  0.50101814     1.35200
V2248       V  0.77247326  0.51604100  0.50101907     1.35200
C2249       C  0.77678170  0.96110540  0.55540758     0.78000
C2250       C  0.72339429  0.53883217  0.94662803     0.78100
C2251       C  0.77677966  0.96111190  0.94662666     0.78000
C2252       C  0.72339570  0.53882786  0.55541038     0.77900
N2253       N  0.81344999  0.83321306  0.50101623    -0.36000
N2254       N  0.84619694  0.79056906  0.94084410    -0.56600
N2255       N  0.88231184  0.74733693  0.50101742    -0.36000
N2256       N  0.84618777  0.79055790  0.56118941    -0.59000
C2257       C  0.79569058  0.84501314  0.96956071     0.27500
C2258       C  0.79568703  0.84500668  0.53247005     0.27500
C2259       C  0.87806777  0.72632625  0.96883658     0.27500
C2260       C  0.87806558  0.72632236  0.53319650     0.27500
C2261       C  0.82877811  0.81448618  0.91824728     0.36200
C2262       C  0.86022721  0.76622755  0.91607188     0.36200
C2263       C  0.82876828  0.81447190  0.58378599     0.36200
C2264       C  0.86021909  0.76621479  0.58596171     0.36200
C2265       C  0.76568858  0.86326354  0.98099615    -0.21300
C2266       C  0.76568649  0.86325951  0.52103234    -0.21300
C2267       C  0.86799272  0.69278095  0.98081173    -0.21300
C2268       C  0.86799139  0.69277852  0.52121837    -0.21300
C2269       C  0.82981203  0.80471181  0.87945112    -0.22400
C2270       C  0.84773013  0.77324796  0.87836968    -0.22400
C2271       C  0.82980208  0.80469371  0.62258191    -0.22400
C2272       C  0.84772160  0.77323054  0.62366339    -0.22400
C2273       C  0.80925509  0.84383172  0.93185508    -0.17700
C2274       C  0.80924827  0.84382008  0.57017744    -0.17700
C2275       C  0.88139577  0.73688305  0.57329899    -0.17700
C2276       C  0.88140042  0.73689167  0.92873489    -0.17700
H2277       H  0.74532073  0.87493271  0.96314458     0.15200
H2278       H  0.74531769  0.87492553  0.53888324     0.15200
H2279       H  0.86035451  0.67081605  0.96224723     0.15200
H2280       H  0.86035216  0.67081146  0.53978081     0.15200
H2281       H  0.81570264  0.81696203  0.85531104     0.13500
H2282       H  0.84630529  0.75602600  0.85344755     0.13500
H2283       H  0.81569341  0.81694192  0.64672176     0.13500
H2284       H  0.84629989  0.75600663  0.64858555     0.13500
H2285       H  0.83926128  0.82355656  0.50101806     0.26700
H2286       H  0.89020656  0.77381398  0.50101885     0.26700
N2287       N  0.66687597  0.81339041  0.75101707    -0.36000
N2288       N  0.70949889  0.84613556  0.81119208    -0.56600
N2289       N  0.75271165  0.88223951  0.75101596    -0.36000
N2290       N  0.70949880  0.84613273  0.69084171    -0.56600
C2291       C  0.65509860  0.79563455  0.78247460     0.27500
C2292       C  0.65509663  0.79563457  0.71956124     0.27500
C2293       C  0.77374050  0.87798573  0.78319839     0.27500
C2294       C  0.77374218  0.87798105  0.71883738     0.27500
C2295       C  0.68558417  0.82873156  0.83378883     0.36200
C2296       C  0.73382709  0.86018075  0.83596589     0.36200
C2297       C  0.68558340  0.82872930  0.66824520     0.36200
C2298       C  0.73382907  0.86017458  0.66606827     0.36200
C2299       C  0.63688534  0.76564638  0.77103728    -0.21300
C2300       C  0.63688393  0.76564651  0.73100130    -0.21300
C2301       C  0.80731117  0.86789056  0.77122474    -0.21300
C2302       C  0.80731210  0.86788723  0.73081835    -0.21300
C2303       C  0.69534569  0.82979875  0.87258970    -0.22400
C2304       C  0.72679966  0.84771692  0.87367463    -0.22400
C2305       C  0.69534623  0.82979373  0.62944524    -0.22400
C2306       C  0.72680165  0.84770928  0.62836081    -0.22400
C2307       C  0.65625929  0.80919062  0.82018266    -0.17700
C2308       C  0.65625801  0.80918901  0.68185128    -0.17700
C2309       C  0.76317265  0.88131768  0.67873375    -0.17700
C2310       C  0.76316859  0.88132614  0.82329979    -0.17700
H2311       H  0.62524998  0.74528139  0.78888581     0.15200
H2312       H  0.62524753  0.74528163  0.71315459     0.15200
H2313       H  0.82929351  0.86023581  0.78978939     0.15200
H2314       H  0.82929529  0.86022891  0.71225887     0.15200
H2315       H  0.68310158  0.81570987  0.89673517     0.13500
H2316       H  0.74401741  0.84630965  0.89861045     0.13500
H2317       H  0.68310217  0.81570412  0.60530082     0.13500
H2318       H  0.74401981  0.84629967  0.60342671     0.13500
H2319       H  0.67649660  0.83917836  0.75101593     0.26700
H2320       H  0.72621390  0.89014422  0.75101324     0.26700
C2321       C  0.57629254  0.84420834  0.87647895     0.87100
C2322       C  0.58333772  0.81893779  0.91090817    -0.53200
C2323       C  0.59740165  0.78650889  0.89997455     0.10000
C2324       C  0.59684454  0.78212199  0.85415595     0.20900
C2325       C  0.61068195  0.84480594  0.85320864    -0.53900
C2326       C  0.62227540  0.81224782  0.84177349     0.10100
C2327       C  0.54963104  0.82571524  0.85080514    -0.53400
C2328       C  0.55990907  0.79360393  0.83776362     0.10700
H2329       H  0.57982676  0.82759182  0.94095401     0.15200
H2330       H  0.60162689  0.75512594  0.84411683     0.00900
H2331       H  0.62494118  0.86906195  0.84654078     0.15500
H2332       H  0.52515607  0.83837203  0.84147458     0.15300
C2333       C  0.57629207  0.84420146  0.62554107     0.87100
C2334       C  0.61068114  0.84480074  0.64881404    -0.53200
C2335       C  0.62227513  0.81224353  0.66025521     0.10000
C2336       C  0.59684532  0.78211653  0.64787435     0.20900
C2337       C  0.58333735  0.81893022  0.59111630    -0.53900
C2338       C  0.59740238  0.78650243  0.60205500     0.10100
C2339       C  0.54963060  0.82570891  0.65121530    -0.53400
C2340       C  0.55990918  0.79359817  0.66426225     0.10700
H2341       H  0.62493951  0.86905738  0.65547989     0.15200
H2342       H  0.60162882  0.75512087  0.65791714     0.00900
H2343       H  0.57982537  0.82758315  0.56106921     0.15500
H2344       H  0.52515538  0.83836576  0.66054203     0.15300
C2345       C  0.92388621  0.65572986  0.62554906     0.87100
C2346       C  0.88949808  0.65513051  0.64882177    -0.53200
C2347       C  0.87790458  0.68768788  0.66025966     0.10000
C2348       C  0.90333351  0.71781476  0.64787568     0.20900
C2349       C  0.91683888  0.68100090  0.59112149    -0.53900
C2350       C  0.90277463  0.71342874  0.60205706     0.10100
C2351       C  0.95054851  0.67422284  0.65122221    -0.53400
C2352       C  0.94026989  0.70633355  0.66426552     0.10700
H2353       H  0.87523997  0.63087387  0.65548967     0.15200
H2354       H  0.89855071  0.74481078  0.65791460     0.00900
H2355       H  0.92034880  0.67234783  0.56107519     0.15500
H2356       H  0.97502405  0.66156635  0.66055129     0.15300
C2357       C  0.92388203  0.65573728  0.87648834     0.87100
C2358       C  0.91684057  0.68100872  0.91091446    -0.53200
C2359       C  0.90277749  0.71343800  0.89997731     0.10000
C2360       C  0.90333272  0.71782446  0.85415801     0.20900
C2361       C  0.88949141  0.65514137  0.85321801    -0.53900
C2362       C  0.87789935  0.68769988  0.84177886     0.10100
C2363       C  0.95054342  0.67422817  0.85081262    -0.53400
C2364       C  0.94026705  0.70633991  0.83776729     0.10700
H2365       H  0.92035269  0.67235496  0.94096126     0.15200
H2366       H  0.89855137  0.74482062  0.84411543     0.00900
H2367       H  0.87523063  0.63088605  0.84655260     0.15500
H2368       H  0.97501722  0.66156962  0.84148399     0.15300
O2369       O  0.95374720  0.75327768  0.79120699    -0.71200
O2370       O  0.51259231  0.79300847  0.71111813    -0.71400
O2371       O  0.95374754  0.75327368  0.71081954    -0.71300
O2372       O  0.51259266  0.79301201  0.79090391    -0.71300
O2373       O  0.54643021  0.74666305  0.79121068    -0.71300
O2374       O  0.98758571  0.70692514  0.71112559    -0.71300
O2375       O  0.54643067  0.74666011  0.71082315    -0.71200
O2376       O  0.98758460  0.70692861  0.79091154    -0.71400
V2377       V  0.98397068  0.77233339  0.75101224     1.35200
V2378       V  0.51620708  0.72760375  0.75101770     1.35200
C2379       C  0.96123888  0.72327372  0.80540652     0.78000
C2380       C  0.53893821  0.77666385  0.69662327     0.78100
C2381       C  0.96124020  0.72326900  0.69662566     0.78000
C2382       C  0.53893815  0.77666805  0.80540399     0.77900
N2383       N  0.83330075  0.68655035  0.75101983    -0.36000
N2384       N  0.79067917  0.65380279  0.69084567    -0.56600
N2385       N  0.74746515  0.61770364  0.75102078    -0.36000
N2386       N  0.79067400  0.65381598  0.81119603    -0.56600
C2387       C  0.84508297  0.70430198  0.71956124     0.27500
C2388       C  0.84507768  0.70430978  0.78247469     0.27500
C2389       C  0.72643557  0.62195646  0.71883865     0.27500
C2390       C  0.72643519  0.62196269  0.78319964     0.27500
C2391       C  0.81459657  0.67120297  0.66824872     0.36200
C2392       C  0.76635104  0.63975778  0.66607150     0.36200
C2393       C  0.81458934  0.67121921  0.83379251     0.36200
C2394       C  0.76634653  0.63976972  0.83596956     0.36200
C2395       C  0.86329662  0.73429040  0.73099679    -0.21300
C2396       C  0.86329312  0.73429532  0.77103274    -0.21300
C2397       C  0.69286503  0.63205158  0.73081291    -0.21300
C2398       C  0.69286494  0.63205590  0.77121941    -0.21300
C2399       C  0.80483683  0.67013379  0.62944745    -0.22400
C2400       C  0.77338143  0.65221854  0.62836226    -0.22400
C2401       C  0.80482881  0.67015076  0.87259311    -0.22400
C2402       C  0.77337511  0.65223187  0.87367816    -0.22400
C2403       C  0.84392228  0.69074294  0.68185425    -0.17700
C2404       C  0.84391528  0.69075812  0.82018570    -0.17700
C2405       C  0.73700520  0.61862436  0.82330286    -0.17700
C2406       C  0.73700733  0.61861511  0.67873723    -0.17700
H2407       H  0.87493473  0.75465310  0.71314750     0.15200
H2408       H  0.87492884  0.75466140  0.78887849     0.15200
H2409       H  0.67088214  0.63970559  0.71224870     0.15200
H2410       H  0.67088175  0.63971299  0.78977955     0.15200
H2411       H  0.81708301  0.68422018  0.60530151     0.13500
H2412       H  0.75616484  0.65362681  0.60342560     0.13500
H2413       H  0.81707400  0.68423822  0.89673838     0.13500
H2414       H  0.75615877  0.65363674  0.89861417     0.13500
H2415       H  0.82367937  0.66076398  0.75102330     0.26700
H2416       H  0.77396249  0.60979871  0.75102332     0.26700
C2417       C  0.56412881  0.87998207  0.61739687    -0.12700
C2418       C  0.55143699  0.90895231  0.62081699    -0.14300
C2419       C  0.59105751  0.55137281  0.63107347    -0.12700
C2420       C  0.62000025  0.56412238  0.63454364    -0.14300
C2421       C  0.93604982  0.61994942  0.61740806    -0.12700
C2422       C  0.94874291  0.59097928  0.62082760    -0.14300
C2423       C  0.90912442  0.94855626  0.63106585    -0.12700
C2424       C  0.88018250  0.93580483  0.63453576    -0.14300
C2425       C  0.61999962  0.56412609  0.86748575    -0.12700
C2426       C  0.59105670  0.55137621  0.87095092    -0.14300
C2427       C  0.55143470  0.90895933  0.88119181    -0.12700
C2428       C  0.56412870  0.87998977  0.88461582    -0.14300
C2429       C  0.88017333  0.93582431  0.86748613    -0.12700
C2430       C  0.90911690  0.94857260  0.87095162    -0.14300
C2431       C  0.94873812  0.59098625  0.88120520    -0.12700
C2432       C  0.93604426  0.61995545  0.88462928    -0.14300
loop_ 
_geom_bond_atom_site_label_1 
_geom_bond_atom_site_label_2 
_geom_bond_distance 
_geom_bond_site_symmetry_2 
_ccdc_geom_bond_type 
O1            V9   1.867   1_545  S
O1           C11   1.250       .  A
O2         V1833   1.867       .  S
O2           C12   1.250       .  A
O3         V1225   1.919   1_545  S
O3           C13   1.271       .  A
O4          V617   1.919       .  S
O4           C14   1.271       .  A
O5         V1226   1.867       .  S
O5           C14   1.250       .  A
O6          V618   1.867   1_545  S
O6           C13   1.250       .  A
O7           V10   1.918       .  S
O7           C12   1.271       .  A
O8         V1834   1.918   1_545  S
O8           C11   1.271       .  A
V9         O1826   1.867       .  S
V9         O1219   1.919   1_565  S
V9          O612   1.919       .  S
V9         V1834   2.091       .  T
V10        O1221   1.867   1_455  S
V10         O614   1.867       .  S
V10        O1832   1.918   1_455  S
V10        V1833   2.091       .  T
C11         C303   1.425       .  S
C12         C299   1.425       .  S
C13         C298   1.425       .  S
C14         C302   1.425       .  S
O15          V23   1.867   1_545  S
O15          C25   1.250       .  A
O16        V1847   1.867       .  S
O16          C26   1.250       .  A
O17         V631   1.919       .  S
O17          C27   1.271       .  A
O18        V1239   1.919   1_545  S
O18          C28   1.271       .  A
O19         V632   1.867   1_545  S
O19          C28   1.250       .  A
O20        V1240   1.867       .  S
O20          C27   1.250       .  A
O21          V24   1.918       .  S
O21          C26   1.271       .  A
O22        V1848   1.918   1_545  S
O22          C25   1.271       .  A
V23        O1840   1.867       .  S
V23         O625   1.919       .  S
V23        O1234   1.919   1_565  S
V23        V1848   2.091       .  T
V24         O627   1.867       .  S
V24        O1236   1.867   1_455  S
V24        O1846   1.918   1_455  S
V24        V1847   2.091       .  T
C25         C294   1.425       .  S
C26         C290   1.425       .  S
C27         C295   1.425       .  S
C28         C291   1.425       .  S
N29          H61   1.041       .  S
N29          C33   1.340       .  A
N29         C338   1.340   1_554  A
N30          C37   1.357       .  A
N30          C38   1.356       .  A
N31          H62   1.044       .  S
N31          C35   1.362       .  A
N31         C340   1.362   1_554  A
N32          C39   1.357       .  A
N32          C40   1.356       .  A
C33          C41   1.382       .  A
C33          C49   1.383       .  A
C34         N333   1.340       .  A
C34          C50   1.383       .  A
C34          C42   1.382       .  A
C35          C43   1.385       .  A
C35          C52   1.428       .  A
C36         N335   1.362       .  A
C36          C51   1.428       .  A
C36          C44   1.385       .  A
C37          C49   1.410       .  A
C37          C45   1.372       .  A
C38          C52   1.433       .  A
C38          C46   1.393       .  A
C39          C47   1.372       .  A
C39          C50   1.410       .  A
C40          C48   1.393       .  A
C40          C51   1.433       .  A
C41         C346   1.363   1_554  A
C41          H53   1.075       .  S
C42         C345   1.363       .  A
C42          H54   1.075       .  S
C43         C348   1.375   1_554  A
C43          H55   1.083       .  S
C44         C347   1.375       .  A
C44          H56   1.083       .  S
C45          C46   1.369       .  A
C45          H57   1.083       .  S
C46          H58   1.071       .  S
C47          C48   1.369       .  A
C47          H59   1.083       .  S
C48          H60   1.071       .  S
C49          C92   1.483       .  S
C50         C101   1.483       .  S
C51         C195   1.548       .  S
C52         C210   1.548       .  S
C63          C64   1.522       .  S
C63          C69   1.506       .  S
C63          C67   1.535       .  S
C63         C301   1.455       .  S
C64          H71   1.088       .  S
C64          C65   1.363       .  D
C65         C145   1.483       .  S
C65          C66   1.549       .  S
C66          C70   1.564       .  S
C66          C68   1.568       .  S
C66          H72   1.091       .  S
C67          H73   1.082       .  S
C67          C68   1.387       .  D
C68         C182   1.548       .  S
C69          H74   1.088       .  S
C69          C70   1.349       .  D
C70         C123   1.500       .  S
C75          C76   1.535       .  S
C75          C81   1.506       .  S
C75          C79   1.522       .  S
C75         C296   1.455       .  S
C76          H83   1.082       .  S
C76          C77   1.387       .  D
C77         C181   1.548       .  S
C77          C78   1.568       .  S
C78          C82   1.564       .  S
C78          C80   1.549       .  S
C78          H84   1.091       .  S
C79          H85   1.088       .  S
C79          C80   1.363       .  D
C80         C146   1.483       .  S
C81          H86   1.088       .  S
C81          C82   1.349       .  D
C82         C121   1.500       .  S
C87          C88   1.535       .  S
C87          C93   1.506       .  S
C87          C91   1.522       .  S
C87         C292   1.455       .  S
C88          H95   1.082       .  S
C88          C89   1.387       .  D
C89         C278   1.548       .  S
C89          C90   1.568       .  S
C90          C94   1.564       .  S
C90          C92   1.549       .  S
C90          H96   1.091       .  S
C91          H97   1.088       .  S
C91          C92   1.363       .  D
C93          H98   1.088       .  S
C93          C94   1.349       .  D
C94         C124   1.500       .  S
C99         C100   1.522       .  S
C99         C105   1.506       .  S
C99         C103   1.535       .  S
C99         C297   1.455       .  S
C100        H107   1.088       .  S
C100        C101   1.363       .  D
C101        C102   1.549       .  S
C102        C106   1.564       .  S
C102        C104   1.568       .  S
C102        H108   1.091       .  S
C103        H109   1.082       .  S
C103        C104   1.387       .  D
C104        C277   1.548       .  S
C105        H110   1.088       .  S
C105        C106   1.349       .  D
C106        C122   1.500       .  S
O111        V119   1.922       .  S
O111        C121   1.265       .  A
O112       V1031   1.904   1_545  S
O112        C122   1.271       .  A
O113        V423   1.922       .  S
O113        C123   1.265       .  A
O114        V727   1.904   1_545  S
O114        C124   1.271       .  A
O115        V120   1.922       .  S
O115        C124   1.265       .  A
O116       V1032   1.904       .  S
O116        C123   1.271       .  A
O117        V424   1.922       .  S
O117        C122   1.265       .  A
O118        V728   1.904       .  S
O118        C121   1.271       .  A
V119       O1024   1.904   1_554  S
V119        O417   1.922   1_554  S
V119        O722   1.904       .  S
V119        V728   2.083       .  T
V120       O1028   1.904   1_544  S
V120        O421   1.922   1_554  S
V120        O726   1.904   1_545  S
V120        V727   2.083   1_545  T
N125        H157   1.041       .  S
N125        C130   1.340       .  A
N125        C433   1.340   1_554  A
N126        C133   1.357       .  A
N126        C134   1.356       .  A
N127        H158   1.044       .  S
N127        C132   1.362       .  A
N127        C435   1.362   1_554  A
N128        C135   1.357       .  A
N128        C136   1.356       .  A
C129        N429   1.340       .  A
C129        C137   1.382       .  A
C129        C145   1.383       .  A
C130        C146   1.383       .  A
C130        C138   1.382       .  A
C131        N431   1.362       .  A
C131        C139   1.385       .  A
C131        C148   1.428       .  A
C132        C147   1.428       .  A
C132        C140   1.385       .  A
C133        C145   1.410       .  A
C133        C141   1.372       .  A
C134        C148   1.433       .  A
C134        C142   1.393       .  A
C135        C143   1.372       .  A
C135        C146   1.410       .  A
C136        C144   1.393       .  A
C136        C147   1.433       .  A
C137        C442   1.363       .  A
C137        H149   1.075       .  S
C138        C441   1.363   1_554  A
C138        H150   1.075       .  S
C139        C444   1.375       .  A
C139        H151   1.083       .  S
C140        C443   1.375   1_554  A
C140        H152   1.083       .  S
C141        C142   1.369       .  A
C141        H153   1.083       .  S
C142        H154   1.071       .  S
C143        C144   1.369       .  A
C143        H155   1.083       .  S
C144        H156   1.071       .  S
C147        C222   1.548       .  S
C148        C231   1.548       .  S
N159        H191   1.041       .  S
N159        C164   1.340       .  A
N159        C163   1.340       .  A
N160        C167   1.357       .  A
N160        C168   1.356       .  A
N161        H192   1.044       .  S
N161        C166   1.362       .  A
N161        C165   1.362       .  A
N162        C169   1.357       .  A
N162        C170   1.356       .  A
C163        C171   1.382       .  A
C163        C179   1.383       .  A
C164        C180   1.383       .  A
C164        C172   1.382       .  A
C165        C173   1.385       .  A
C165        C182   1.428       .  A
C166        C181   1.428       .  A
C166        C174   1.385       .  A
C167        C179   1.410       .  A
C167        C175   1.372       .  A
C168        C182   1.433       .  A
C168        C176   1.393       .  A
C169        C177   1.372       .  A
C169        C180   1.410       .  A
C170        C178   1.393       .  A
C170        C181   1.433       .  A
C171        C172   1.363       .  A
C171        H183   1.075       .  S
C172        H184   1.075       .  S
C173        C174   1.375       .  A
C173        H185   1.083       .  S
C174        H186   1.083       .  S
C175        C176   1.368       .  A
C175        H187   1.083       .  S
C176        H188   1.071       .  S
C177        C178   1.368       .  A
C177        H189   1.083       .  S
C178        H190   1.071       .  S
C179        C198   1.484       .  S
C180        C207   1.484       .  S
C193        C194   1.535       .  S
C193        C199   1.506       .  S
C193        C197   1.522       .  S
C193        C300   1.455       .  S
C194        H201   1.082       .  S
C194        C195   1.387       .  D
C195        C196   1.568       .  S
C196        C200   1.564       .  S
C196        C198   1.549       .  S
C196        H202   1.091       .  S
C197        H203   1.088       .  S
C197        C198   1.363       .  D
C199        H204   1.088       .  S
C199        C200   1.349       .  D
C200        C254   1.500       .  S
C205        C206   1.522       .  S
C205        C211   1.506       .  S
C205        C209   1.535       .  S
C205        C289   1.455       .  S
C206        H213   1.088       .  S
C206        C207   1.363       .  D
C207        C208   1.549       .  S
C208        C212   1.564       .  S
C208        C210   1.568       .  S
C208        H214   1.091       .  S
C209        H215   1.082       .  S
C209        C210   1.387       .  D
C211        H216   1.088       .  S
C211        C212   1.349       .  D
C212        C252   1.500       .  S
C217        C218   1.522       .  S
C217        C223   1.506       .  S
C217        C221   1.535       .  S
C217        C293   1.455       .  S
C218        H225   1.088       .  S
C218        C219   1.363       .  D
C219        C275   1.484       .  S
C219        C220   1.549       .  S
C220        C224   1.564       .  S
C220        C222   1.568       .  S
C220        H226   1.091       .  S
C221        H227   1.082       .  S
C221        C222   1.387       .  D
C223        H228   1.088       .  S
C223        C224   1.349       .  D
C224        C253   1.500       .  S
C229        C230   1.535       .  S
C229        C235   1.506       .  S
C229        C233   1.522       .  S
C229        C304   1.455       .  S
C230        H237   1.082       .  S
C230        C231   1.387       .  D
C231        C232   1.568       .  S
C232        C236   1.564       .  S
C232        C234   1.549       .  S
C232        H238   1.091       .  S
C233        H239   1.088       .  S
C233        C234   1.363       .  D
C234        C276   1.484       .  S
C235        H240   1.088       .  S
C235        C236   1.349       .  D
C236        C251   1.500       .  S
O241        V249   1.922       .  S
O241        C251   1.265       .  A
O242       V1465   1.904   1_455  S
O242        C252   1.271       .  A
O243        V249   1.922       .  S
O243        C253   1.265       .  A
O244       V1465   1.904   1_455  S
O244        C254   1.271       .  A
O245        V250   1.922       .  S
O245        C254   1.265       .  A
O246       V1466   1.904       .  S
O246        C253   1.271       .  A
O247        V250   1.922       .  S
O247        C252   1.265       .  A
O248       V1466   1.904       .  S
O248        C251   1.271       .  A
V249       O1458   1.904       .  S
V249       O1460   1.904       .  S
V249       V1466   2.083       .  T
V250       O1462   1.904   1_455  S
V250       O1464   1.904   1_455  S
V250       V1465   2.083   1_455  T
N255        H287   1.040       .  S
N255        C260   1.340       .  A
N255        C259   1.340       .  A
N256        C263   1.357       .  A
N256        C264   1.356       .  A
N257        H288   1.044       .  S
N257        C262   1.362       .  A
N257        C261   1.362       .  A
N258        C265   1.357       .  A
N258        C266   1.356       .  A
C259        C267   1.382       .  A
C259        C275   1.383       .  A
C260        C276   1.383       .  A
C260        C268   1.382       .  A
C261        C269   1.385       .  A
C261        C278   1.428       .  A
C262        C277   1.428       .  A
C262        C270   1.385       .  A
C263        C275   1.410       .  A
C263        C271   1.372       .  A
C264        C278   1.433       .  A
C264        C272   1.393       .  A
C265        C273   1.372       .  A
C265        C276   1.410       .  A
C266        C274   1.393       .  A
C266        C277   1.433       .  A
C267        C268   1.363       .  A
C267        H279   1.075       .  S
C268        H280   1.075       .  S
C269        C270   1.375       .  A
C269        H281   1.083       .  S
C270        H282   1.083       .  S
C271        C272   1.368       .  A
C271        H283   1.083       .  S
C272        H284   1.071       .  S
C273        C274   1.368       .  A
C273        H285   1.083       .  S
C274        H286   1.071       .  S
C289        C290   1.201       .  T
C291        C292   1.201       .  T
C293        C294   1.201       .  T
C295        C296   1.201       .  T
C297        C298   1.201       .  T
C299        C300   1.201       .  T
C301        C302   1.201       .  T
C303        C304   1.201       .  T
O305        V313   1.867   1_545  S
O305        C315   1.250       .  A
O306       V2137   1.867       .  S
O306        C316   1.250       .  A
O307       V1529   1.919   1_545  S
O307        C317   1.271       .  A
O308        V921   1.919       .  S
O308        C318   1.271       .  A
O309       V1530   1.867       .  S
O309        C318   1.250       .  A
O310        V922   1.867   1_545  S
O310        C317   1.250       .  A
O311        V314   1.918       .  S
O311        C316   1.271       .  A
O312       V2138   1.918   1_545  S
O312        C315   1.271       .  A
V313       O2130   1.867       .  S
V313       O1523   1.919   1_565  S
V313        O916   1.919       .  S
V313       V2138   2.091       .  T
V314       O1525   1.867   1_455  S
V314        O918   1.867       .  S
V314       O2136   1.918   1_455  S
V314       V2137   2.091       .  T
C315        C607   1.425       .  S
C316        C603   1.425       .  S
C317        C602   1.425       .  S
C318        C606   1.425       .  S
O319        V327   1.867   1_545  S
O319        C329   1.250       .  A
O320       V2151   1.867       .  S
O320        C330   1.250       .  A
O321        V935   1.919       .  S
O321        C331   1.271       .  A
O322       V1543   1.919   1_545  S
O322        C332   1.271       .  A
O323        V936   1.867   1_545  S
O323        C332   1.250       .  A
O324       V1544   1.867       .  S
O324        C331   1.250       .  A
O325        V328   1.918       .  S
O325        C330   1.271       .  A
O326       V2152   1.918   1_545  S
O326        C329   1.271       .  A
V327       O2144   1.867       .  S
V327        O929   1.919       .  S
V327       O1538   1.919   1_565  S
V327       V2152   2.091       .  T
V328        O931   1.867       .  S
V328       O1540   1.867   1_455  S
V328       O2150   1.918   1_455  S
V328       V2151   2.091       .  T
C329        C598   1.425       .  S
C330        C594   1.425       .  S
C331        C599   1.425       .  S
C332        C595   1.425       .  S
N333        H365   1.041       .  S
N333        C337   1.340       .  A
N334        C341   1.357       .  A
N334        C342   1.356       .  A
N335        H366   1.044       .  S
N335        C339   1.362       .  A
N336        C343   1.357       .  A
N336        C344   1.356       .  A
C337        C345   1.382       .  A
C337        C353   1.383       .  A
C338        C354   1.383       .  A
C338        C346   1.382       .  A
C339        C347   1.385       .  A
C339        C356   1.428       .  A
C340        C355   1.428       .  A
C340        C348   1.385       .  A
C341        C353   1.410       .  A
C341        C349   1.372       .  A
C342        C356   1.433       .  A
C342        C350   1.393       .  A
C343        C351   1.372       .  A
C343        C354   1.410       .  A
C344        C352   1.393       .  A
C344        C355   1.433       .  A
C345        H357   1.075       .  S
C346        H358   1.075       .  S
C347        H359   1.083       .  S
C348        H360   1.083       .  S
C349        C350   1.369       .  A
C349        H361   1.083       .  S
C350        H362   1.071       .  S
C351        C352   1.369       .  A
C351        H363   1.083       .  S
C352        H364   1.071       .  S
C353        C396   1.483       .  S
C354        C405   1.483       .  S
C355        C499   1.548       .  S
C356        C514   1.548       .  S
C367        C368   1.522       .  S
C367        C373   1.506       .  S
C367        C371   1.535       .  S
C367        C605   1.455       .  S
C368        H375   1.088       .  S
C368        C369   1.363       .  D
C369        C449   1.483       .  S
C369        C370   1.549       .  S
C370        C374   1.564       .  S
C370        C372   1.568       .  S
C370        H376   1.091       .  S
C371        H377   1.082       .  S
C371        C372   1.387       .  D
C372        C486   1.548       .  S
C373        H378   1.088       .  S
C373        C374   1.349       .  D
C374        C427   1.500       .  S
C379        C380   1.535       .  S
C379        C385   1.506       .  S
C379        C383   1.522       .  S
C379        C600   1.455       .  S
C380        H387   1.082       .  S
C380        C381   1.387       .  D
C381        C485   1.548       .  S
C381        C382   1.568       .  S
C382        C386   1.564       .  S
C382        C384   1.549       .  S
C382        H388   1.091       .  S
C383        H389   1.088       .  S
C383        C384   1.363       .  D
C384        C450   1.483       .  S
C385        H390   1.088       .  S
C385        C386   1.349       .  D
C386        C425   1.500       .  S
C391        C392   1.535       .  S
C391        C397   1.506       .  S
C391        C395   1.522       .  S
C391        C596   1.455       .  S
C392        H399   1.082       .  S
C392        C393   1.387       .  D
C393        C582   1.548       .  S
C393        C394   1.568       .  S
C394        C398   1.564       .  S
C394        C396   1.549       .  S
C394        H400   1.091       .  S
C395        H401   1.088       .  S
C395        C396   1.363       .  D
C397        H402   1.088       .  S
C397        C398   1.349       .  D
C398        C428   1.500       .  S
C403        C404   1.522       .  S
C403        C409   1.506       .  S
C403        C407   1.535       .  S
C403        C601   1.455       .  S
C404        H411   1.088       .  S
C404        C405   1.363       .  D
C405        C406   1.549       .  S
C406        C410   1.564       .  S
C406        C408   1.568       .  S
C406        H412   1.091       .  S
C407        H413   1.082       .  S
C407        C408   1.387       .  D
C408        C581   1.548       .  S
C409        H414   1.088       .  S
C409        C410   1.349       .  D
C410        C426   1.500       .  S
O415        V423   1.922       .  S
O415        C425   1.265       .  A
O416        V727   1.904   1_546  S
O416        C426   1.271       .  A
O417        C427   1.265       .  A
O418       V1031   1.904   1_545  S
O418        C428   1.271       .  A
O419        V424   1.922       .  S
O419        C428   1.265       .  A
O420        V728   1.904   1_556  S
O420        C427   1.271       .  A
O421        C426   1.265       .  A
O422       V1032   1.904       .  S
O422        C425   1.271       .  A
V423        O720   1.904       .  S
V423       O1026   1.904       .  S
V423       V1032   2.083       .  T
V424        O724   1.904   1_545  S
V424       O1030   1.904   1_545  S
V424       V1031   2.083   1_545  T
N429        H461   1.041       .  S
N429        C434   1.340       .  A
N430        C437   1.357       .  A
N430        C438   1.356       .  A
N431        H462   1.044       .  S
N431        C436   1.362       .  A
N432        C439   1.357       .  A
N432        C440   1.356       .  A
C433        C441   1.382       .  A
C433        C449   1.383       .  A
C434        C450   1.383       .  A
C434        C442   1.382       .  A
C435        C443   1.385       .  A
C435        C452   1.428       .  A
C436        C451   1.428       .  A
C436        C444   1.385       .  A
C437        C449   1.410       .  A
C437        C445   1.372       .  A
C438        C452   1.433       .  A
C438        C446   1.393       .  A
C439        C447   1.372       .  A
C439        C450   1.410       .  A
C440        C448   1.393       .  A
C440        C451   1.433       .  A
C441        H453   1.075       .  S
C442        H454   1.075       .  S
C443        H455   1.083       .  S
C444        H456   1.083       .  S
C445        C446   1.369       .  A
C445        H457   1.083       .  S
C446        H458   1.071       .  S
C447        C448   1.369       .  A
C447        H459   1.083       .  S
C448        H460   1.071       .  S
C451        C526   1.548       .  S
C452        C535   1.548       .  S
N463        H495   1.040       .  S
N463        C468   1.340       .  A
N463        C467   1.340       .  A
N464        C471   1.357       .  A
N464        C472   1.356       .  A
N465        H496   1.044       .  S
N465        C470   1.362       .  A
N465        C469   1.362       .  A
N466        C473   1.357       .  A
N466        C474   1.356       .  A
C467        C475   1.382       .  A
C467        C483   1.383       .  A
C468        C484   1.383       .  A
C468        C476   1.382       .  A
C469        C477   1.385       .  A
C469        C486   1.428       .  A
C470        C485   1.428       .  A
C470        C478   1.385       .  A
C471        C483   1.410       .  A
C471        C479   1.372       .  A
C472        C486   1.433       .  A
C472        C480   1.393       .  A
C473        C481   1.372       .  A
C473        C484   1.410       .  A
C474        C482   1.393       .  A
C474        C485   1.433       .  A
C475        C476   1.363       .  A
C475        H487   1.075       .  S
C476        H488   1.075       .  S
C477        C478   1.375       .  A
C477        H489   1.083       .  S
C478        H490   1.083       .  S
C479        C480   1.368       .  A
C479        H491   1.083       .  S
C480        H492   1.071       .  S
C481        C482   1.368       .  A
C481        H493   1.083       .  S
C482        H494   1.071       .  S
C483        C502   1.484       .  S
C484        C511   1.484       .  S
C497        C498   1.535       .  S
C497        C503   1.506       .  S
C497        C501   1.522       .  S
C497        C604   1.455       .  S
C498        H505   1.082       .  S
C498        C499   1.387       .  D
C499        C500   1.568       .  S
C500        C504   1.564       .  S
C500        C502   1.549       .  S
C500        H506   1.091       .  S
C501        H507   1.088       .  S
C501        C502   1.363       .  D
C503        H508   1.088       .  S
C503        C504   1.349       .  D
C504        C558   1.500       .  S
C509        C510   1.522       .  S
C509        C515   1.506       .  S
C509        C513   1.535       .  S
C509        C593   1.455       .  S
C510        H517   1.088       .  S
C510        C511   1.363       .  D
C511        C512   1.549       .  S
C512        C516   1.564       .  S
C512        C514   1.568       .  S
C512        H518   1.091       .  S
C513        H519   1.082       .  S
C513        C514   1.387       .  D
C515        H520   1.088       .  S
C515        C516   1.349       .  D
C516        C556   1.500       .  S
C521        C522   1.522       .  S
C521        C527   1.506       .  S
C521        C525   1.535       .  S
C521        C597   1.455       .  S
C522        H529   1.088       .  S
C522        C523   1.363       .  D
C523        C579   1.484       .  S
C523        C524   1.549       .  S
C524        C528   1.564       .  S
C524        C526   1.568       .  S
C524        H530   1.091       .  S
C525        H531   1.082       .  S
C525        C526   1.387       .  D
C527        H532   1.088       .  S
C527        C528   1.349       .  D
C528        C557   1.500       .  S
C533        C534   1.535       .  S
C533        C539   1.506       .  S
C533        C537   1.522       .  S
C533        C608   1.455       .  S
C534        H541   1.082       .  S
C534        C535   1.387       .  D
C535        C536   1.568       .  S
C536        C540   1.564       .  S
C536        C538   1.549       .  S
C536        H542   1.091       .  S
C537        H543   1.088       .  S
C537        C538   1.363       .  D
C538        C580   1.484       .  S
C539        H544   1.088       .  S
C539        C540   1.349       .  D
C540        C555   1.500       .  S
O545        V553   1.922       .  S
O545        C555   1.265       .  A
O546       V1769   1.904   1_455  S
O546        C556   1.271       .  A
O547        V553   1.922       .  S
O547        C557   1.265       .  A
O548       V1769   1.904   1_455  S
O548        C558   1.271       .  A
O549        V554   1.922       .  S
O549        C558   1.265       .  A
O550       V1770   1.904       .  S
O550        C557   1.271       .  A
O551        V554   1.922       .  S
O551        C556   1.265       .  A
O552       V1770   1.904       .  S
O552        C555   1.271       .  A
V553       O1762   1.904       .  S
V553       O1764   1.904       .  S
V553       V1770   2.083       .  T
V554       O1766   1.904   1_455  S
V554       O1768   1.904   1_455  S
V554       V1769   2.083   1_455  T
N559        H591   1.040       .  S
N559        C564   1.340       .  A
N559        C563   1.340       .  A
N560        C567   1.357       .  A
N560        C568   1.356       .  A
N561        H592   1.044       .  S
N561        C566   1.362       .  A
N561        C565   1.362       .  A
N562        C569   1.357       .  A
N562        C570   1.356       .  A
C563        C571   1.382       .  A
C563        C579   1.383       .  A
C564        C580   1.383       .  A
C564        C572   1.382       .  A
C565        C573   1.385       .  A
C565        C582   1.428       .  A
C566        C581   1.428       .  A
C566        C574   1.385       .  A
C567        C579   1.410       .  A
C567        C575   1.372       .  A
C568        C582   1.433       .  A
C568        C576   1.393       .  A
C569        C577   1.372       .  A
C569        C580   1.410       .  A
C570        C578   1.393       .  A
C570        C581   1.433       .  A
C571        C572   1.363       .  A
C571        H583   1.075       .  S
C572        H584   1.075       .  S
C573        C574   1.375       .  A
C573        H585   1.083       .  S
C574        H586   1.083       .  S
C575        C576   1.368       .  A
C575        H587   1.083       .  S
C576        H588   1.071       .  S
C577        C578   1.368       .  A
C577        H589   1.083       .  S
C578        H590   1.071       .  S
C593        C594   1.201       .  T
C595        C596   1.201       .  T
C597        C598   1.201       .  T
C599        C600   1.201       .  T
C601        C602   1.201       .  T
C603        C604   1.201       .  T
C605        C606   1.201       .  T
C607        C608   1.201       .  T
O609        V617   1.867       .  S
O609        C619   1.250       .  A
O610       V1225   1.867       .  S
O610        C620   1.250       .  A
O611       V1833   1.919       .  S
O611        C621   1.271       .  A
O612        C622   1.271       .  A
O613       V1834   1.867       .  S
O613        C622   1.250       .  A
O614        C621   1.250       .  A
O615        V618   1.918       .  S
O615        C620   1.271       .  A
O616       V1226   1.918       .  S
O616        C619   1.271       .  A
V617       O1218   1.867       .  S
V617       O1827   1.919       .  S
V617       V1226   2.091       .  T
V618       O1829   1.867   1_455  S
V618       O1224   1.918   1_465  S
V618       V1225   2.091       .  T
C619        C911   1.425       .  S
C620        C907   1.425       .  S
C621        C906   1.425       .  S
C622        C910   1.425       .  S
O623        V631   1.867       .  S
O623        C633   1.250       .  A
O624       V1239   1.867       .  S
O624        C634   1.250       .  A
O625        C635   1.271       .  A
O626       V1847   1.919       .  S
O626        C636   1.271       .  A
O627        C636   1.250       .  A
O628       V1848   1.867       .  S
O628        C635   1.250       .  A
O629        V632   1.918       .  S
O629        C634   1.271       .  A
O630       V1240   1.918       .  S
O630        C633   1.271       .  A
V631       O1232   1.867       .  S
V631       O1842   1.919       .  S
V631       V1240   2.091       .  T
V632       O1844   1.867   1_455  S
V632       O1238   1.918   1_465  S
V632       V1239   2.091       .  T
C633        C902   1.425       .  S
C634        C898   1.425       .  S
C635        C903   1.425       .  S
C636        C899   1.425       .  S
N637        H669   1.041       .  S
N637        C946   1.340   1_554  A
N637        C641   1.340       .  A
N638        C645   1.357       .  A
N638        C646   1.356       .  A
N639        H670   1.044       .  S
N639        C948   1.362   1_554  A
N639        C643   1.362       .  A
N640        C647   1.357       .  A
N640        C648   1.356       .  A
C641        C649   1.382       .  A
C641        C657   1.383       .  A
C642        N941   1.340       .  A
C642        C658   1.383       .  A
C642        C650   1.382       .  A
C643        C651   1.385       .  A
C643        C660   1.428       .  A
C644        N943   1.362       .  A
C644        C659   1.428       .  A
C644        C652   1.385       .  A
C645        C657   1.410       .  A
C645        C653   1.372       .  A
C646        C660   1.433       .  A
C646        C654   1.393       .  A
C647        C655   1.372       .  A
C647        C658   1.410       .  A
C648        C656   1.393       .  A
C648        C659   1.433       .  A
C649        C954   1.363   1_554  A
C649        H661   1.075       .  S
C650        C953   1.363       .  A
C650        H662   1.075       .  S
C651        C956   1.375   1_554  A
C651        H663   1.083       .  S
C652        C955   1.375       .  A
C652        H664   1.083       .  S
C653        C654   1.369       .  A
C653        H665   1.083       .  S
C654        H666   1.071       .  S
C655        C656   1.369       .  A
C655        H667   1.083       .  S
C656        H668   1.071       .  S
C657        C700   1.483       .  S
C658        C709   1.483       .  S
C659        C803   1.548       .  S
C660        C818   1.548       .  S
C671        C672   1.522       .  S
C671        C677   1.506       .  S
C671        C675   1.535       .  S
C671        C909   1.455       .  S
C672        H679   1.088       .  S
C672        C673   1.363       .  D
C673        C753   1.483       .  S
C673        C674   1.549       .  S
C674        C678   1.564       .  S
C674        C676   1.568       .  S
C674        H680   1.091       .  S
C675        H681   1.082       .  S
C675        C676   1.387       .  D
C676        C790   1.548       .  S
C677        H682   1.088       .  S
C677        C678   1.349       .  D
C678        C731   1.500       .  S
C683        C684   1.535       .  S
C683        C689   1.506       .  S
C683        C687   1.522       .  S
C683        C904   1.455       .  S
C684        H691   1.082       .  S
C684        C685   1.387       .  D
C685        C789   1.548       .  S
C685        C686   1.568       .  S
C686        C690   1.564       .  S
C686        C688   1.549       .  S
C686        H692   1.091       .  S
C687        H693   1.088       .  S
C687        C688   1.363       .  D
C688        C754   1.483       .  S
C689        H694   1.088       .  S
C689        C690   1.349       .  D
C690        C729   1.500       .  S
C695        C696   1.535       .  S
C695        C701   1.506       .  S
C695        C699   1.522       .  S
C695        C900   1.455       .  S
C696        H703   1.082       .  S
C696        C697   1.387       .  D
C697        C886   1.548       .  S
C697        C698   1.568       .  S
C698        C702   1.564       .  S
C698        C700   1.549       .  S
C698        H704   1.091       .  S
C699        H705   1.088       .  S
C699        C700   1.363       .  D
C701        H706   1.088       .  S
C701        C702   1.349       .  D
C702        C732   1.500       .  S
C707        C708   1.522       .  S
C707        C713   1.506       .  S
C707        C711   1.535       .  S
C707        C905   1.455       .  S
C708        H715   1.088       .  S
C708        C709   1.363       .  D
C709        C710   1.549       .  S
C710        C714   1.564       .  S
C710        C712   1.568       .  S
C710        H716   1.091       .  S
C711        H717   1.082       .  S
C711        C712   1.387       .  D
C712        C885   1.548       .  S
C713        H718   1.088       .  S
C713        C714   1.349       .  D
C714        C730   1.500       .  S
O719        V727   1.922       .  S
O719        C729   1.265       .  A
O720        C730   1.271       .  A
O721       V1031   1.922       .  S
O721        C731   1.265       .  A
O722        C732   1.271       .  A
O723        V728   1.922       .  S
O723        C732   1.265       .  A
O724        C731   1.271       .  A
O725       V1032   1.922       .  S
O725        C730   1.265       .  A
O726        C729   1.271       .  A
V727       O1025   1.922   1_554  S
V728       O1029   1.922   1_554  S
N733        H765   1.041       .  S
N733        C738   1.340       .  A
N733       C1041   1.340   1_554  A
N734        C741   1.357       .  A
N734        C742   1.356       .  A
N735        H766   1.044       .  S
N735        C740   1.362       .  A
N735       C1043   1.362   1_554  A
N736        C743   1.357       .  A
N736        C744   1.356       .  A
C737       N1037   1.340       .  A
C737        C745   1.382       .  A
C737        C753   1.383       .  A
C738        C754   1.383       .  A
C738        C746   1.382       .  A
C739       N1039   1.362       .  A
C739        C747   1.385       .  A
C739        C756   1.428       .  A
C740        C755   1.428       .  A
C740        C748   1.385       .  A
C741        C753   1.410       .  A
C741        C749   1.372       .  A
C742        C756   1.433       .  A
C742        C750   1.393       .  A
C743        C751   1.372       .  A
C743        C754   1.410       .  A
C744        C752   1.393       .  A
C744        C755   1.433       .  A
C745       C1050   1.363       .  A
C745        H757   1.075       .  S
C746       C1049   1.363   1_554  A
C746        H758   1.075       .  S
C747       C1052   1.375       .  A
C747        H759   1.083       .  S
C748       C1051   1.375   1_554  A
C748        H760   1.083       .  S
C749        C750   1.369       .  A
C749        H761   1.083       .  S
C750        H762   1.071       .  S
C751        C752   1.369       .  A
C751        H763   1.083       .  S
C752        H764   1.071       .  S
C755        C830   1.548       .  S
C756        C839   1.548       .  S
N767        H799   1.040       .  S
N767        C772   1.340       .  A
N767        C771   1.340       .  A
N768        C775   1.357       .  A
N768        C776   1.356       .  A
N769        H800   1.044       .  S
N769        C774   1.362       .  A
N769        C773   1.362       .  A
N770        C777   1.357       .  A
N770        C778   1.356       .  A
C771        C779   1.382       .  A
C771        C787   1.383       .  A
C772        C788   1.383       .  A
C772        C780   1.382       .  A
C773        C781   1.385       .  A
C773        C790   1.428       .  A
C774        C789   1.428       .  A
C774        C782   1.385       .  A
C775        C787   1.410       .  A
C775        C783   1.372       .  A
C776        C790   1.433       .  A
C776        C784   1.393       .  A
C777        C785   1.372       .  A
C777        C788   1.410       .  A
C778        C786   1.393       .  A
C778        C789   1.433       .  A
C779        C780   1.363       .  A
C779        H791   1.075       .  S
C780        H792   1.075       .  S
C781        C782   1.375       .  A
C781        H793   1.083       .  S
C782        H794   1.083       .  S
C783        C784   1.368       .  A
C783        H795   1.083       .  S
C784        H796   1.071       .  S
C785        C786   1.368       .  A
C785        H797   1.083       .  S
C786        H798   1.071       .  S
C787        C806   1.484       .  S
C788        C815   1.484       .  S
C801        C802   1.535       .  S
C801        C807   1.506       .  S
C801        C805   1.522       .  S
C801        C908   1.455       .  S
C802        H809   1.082       .  S
C802        C803   1.387       .  D
C803        C804   1.568       .  S
C804        C808   1.564       .  S
C804        C806   1.549       .  S
C804        H810   1.091       .  S
C805        H811   1.088       .  S
C805        C806   1.363       .  D
C807        H812   1.088       .  S
C807        C808   1.349       .  D
C808        C862   1.500       .  S
C813        C814   1.522       .  S
C813        C819   1.506       .  S
C813        C817   1.535       .  S
C813        C897   1.455       .  S
C814        H821   1.088       .  S
C814        C815   1.363       .  D
C815        C816   1.549       .  S
C816        C820   1.564       .  S
C816        C818   1.568       .  S
C816        H822   1.091       .  S
C817        H823   1.082       .  S
C817        C818   1.387       .  D
C819        H824   1.088       .  S
C819        C820   1.349       .  D
C820        C860   1.500       .  S
C825        C826   1.522       .  S
C825        C831   1.506       .  S
C825        C829   1.535       .  S
C825        C901   1.455       .  S
C826        H833   1.088       .  S
C826        C827   1.363       .  D
C827        C883   1.484       .  S
C827        C828   1.549       .  S
C828        C832   1.564       .  S
C828        C830   1.568       .  S
C828        H834   1.091       .  S
C829        H835   1.082       .  S
C829        C830   1.387       .  D
C831        H836   1.088       .  S
C831        C832   1.349       .  D
C832        C861   1.500       .  S
C837        C838   1.535       .  S
C837        C843   1.506       .  S
C837        C841   1.522       .  S
C837        C912   1.455       .  S
C838        H845   1.082       .  S
C838        C839   1.387       .  D
C839        C840   1.568       .  S
C840        C844   1.564       .  S
C840        C842   1.549       .  S
C840        H846   1.091       .  S
C841        H847   1.088       .  S
C841        C842   1.363       .  D
C842        C884   1.484       .  S
C843        H848   1.088       .  S
C843        C844   1.349       .  D
C844        C859   1.500       .  S
O849        V857   1.922       .  S
O849        C859   1.265       .  A
O850       V2073   1.904   1_455  S
O850        C860   1.271       .  A
O851        V857   1.922       .  S
O851        C861   1.265       .  A
O852       V2073   1.904   1_455  S
O852        C862   1.271       .  A
O853        V858   1.922       .  S
O853        C862   1.265       .  A
O854       V2074   1.904       .  S
O854        C861   1.271       .  A
O855        V858   1.922       .  S
O855        C860   1.265       .  A
O856       V2074   1.904       .  S
O856        C859   1.271       .  A
V857       O2066   1.904       .  S
V857       O2068   1.904       .  S
V857       V2074   2.083       .  T
V858       O2070   1.904   1_455  S
V858       O2072   1.904   1_455  S
V858       V2073   2.083   1_455  T
N863        H895   1.040       .  S
N863        C868   1.340       .  A
N863        C867   1.340       .  A
N864        C871   1.357       .  A
N864        C872   1.356       .  A
N865        H896   1.044       .  S
N865        C870   1.362       .  A
N865        C869   1.362       .  A
N866        C873   1.357       .  A
N866        C874   1.356       .  A
C867        C875   1.382       .  A
C867        C883   1.383       .  A
C868        C884   1.383       .  A
C868        C876   1.382       .  A
C869        C877   1.385       .  A
C869        C886   1.428       .  A
C870        C885   1.428       .  A
C870        C878   1.385       .  A
C871        C883   1.410       .  A
C871        C879   1.372       .  A
C872        C886   1.433       .  A
C872        C880   1.393       .  A
C873        C881   1.372       .  A
C873        C884   1.410       .  A
C874        C882   1.393       .  A
C874        C885   1.433       .  A
C875        C876   1.363       .  A
C875        H887   1.075       .  S
C876        H888   1.075       .  S
C877        C878   1.375       .  A
C877        H889   1.083       .  S
C878        H890   1.083       .  S
C879        C880   1.368       .  A
C879        H891   1.083       .  S
C880        H892   1.071       .  S
C881        C882   1.368       .  A
C881        H893   1.083       .  S
C882        H894   1.071       .  S
C897        C898   1.201       .  T
C899        C900   1.201       .  T
C901        C902   1.201       .  T
C903        C904   1.201       .  T
C905        C906   1.201       .  T
C907        C908   1.201       .  T
C909        C910   1.201       .  T
C911        C912   1.201       .  T
O913        V921   1.867       .  S
O913        C923   1.250       .  A
O914       V1529   1.867       .  S
O914        C924   1.250       .  A
O915       V2137   1.919       .  S
O915        C925   1.271       .  A
O916        C926   1.271       .  A
O917       V2138   1.867       .  S
O917        C926   1.250       .  A
O918        C925   1.250       .  A
O919        V922   1.918       .  S
O919        C924   1.271       .  A
O920       V1530   1.918       .  S
O920        C923   1.271       .  A
V921       O1522   1.867       .  S
V921       O2131   1.919       .  S
V921       V1530   2.091       .  T
V922       O2133   1.867   1_455  S
V922       O1528   1.918   1_465  S
V922       V1529   2.091       .  T
C923       C1215   1.425       .  S
C924       C1211   1.425       .  S
C925       C1210   1.425       .  S
C926       C1214   1.425       .  S
O927        V935   1.867       .  S
O927        C937   1.250       .  A
O928       V1543   1.867       .  S
O928        C938   1.250       .  A
O929        C939   1.271       .  A
O930       V2151   1.919       .  S
O930        C940   1.271       .  A
O931        C940   1.250       .  A
O932       V2152   1.867       .  S
O932        C939   1.250       .  A
O933        V936   1.918       .  S
O933        C938   1.271       .  A
O934       V1544   1.918       .  S
O934        C937   1.271       .  A
V935       O1536   1.867       .  S
V935       O2146   1.919       .  S
V935       V1544   2.091       .  T
V936       O2148   1.867   1_455  S
V936       O1542   1.918   1_465  S
V936       V1543   2.091       .  T
C937       C1206   1.425       .  S
C938       C1202   1.425       .  S
C939       C1207   1.425       .  S
C940       C1203   1.425       .  S
N941        H973   1.041       .  S
N941        C945   1.340       .  A
N942        C949   1.357       .  A
N942        C950   1.356       .  A
N943        H974   1.044       .  S
N943        C947   1.362       .  A
N944        C951   1.357       .  A
N944        C952   1.356       .  A
C945        C953   1.382       .  A
C945        C961   1.383       .  A
C946        C962   1.383       .  A
C946        C954   1.382       .  A
C947        C955   1.385       .  A
C947        C964   1.428       .  A
C948        C963   1.428       .  A
C948        C956   1.385       .  A
C949        C961   1.410       .  A
C949        C957   1.372       .  A
C950        C964   1.433       .  A
C950        C958   1.393       .  A
C951        C959   1.372       .  A
C951        C962   1.410       .  A
C952        C960   1.393       .  A
C952        C963   1.433       .  A
C953        H965   1.075       .  S
C954        H966   1.075       .  S
C955        H967   1.083       .  S
C956        H968   1.083       .  S
C957        C958   1.369       .  A
C957        H969   1.083       .  S
C958        H970   1.071       .  S
C959        C960   1.369       .  A
C959        H971   1.083       .  S
C960        H972   1.071       .  S
C961       C1004   1.483       .  S
C962       C1013   1.483       .  S
C963       C1107   1.548       .  S
C964       C1122   1.548       .  S
C975        C976   1.522       .  S
C975        C981   1.506       .  S
C975        C979   1.535       .  S
C975       C1213   1.455       .  S
C976        H983   1.088       .  S
C976        C977   1.363       .  D
C977       C1057   1.483       .  S
C977        C978   1.549       .  S
C978        C982   1.564       .  S
C978        C980   1.568       .  S
C978        H984   1.091       .  S
C979        H985   1.082       .  S
C979        C980   1.387       .  D
C980       C1094   1.548       .  S
C981        H986   1.088       .  S
C981        C982   1.349       .  D
C982       C1035   1.500       .  S
C987        C988   1.535       .  S
C987        C993   1.506       .  S
C987        C991   1.522       .  S
C987       C1208   1.455       .  S
C988        H995   1.082       .  S
C988        C989   1.387       .  D
C989       C1093   1.548       .  S
C989        C990   1.568       .  S
C990        C994   1.564       .  S
C990        C992   1.549       .  S
C990        H996   1.091       .  S
C991        H997   1.088       .  S
C991        C992   1.363       .  D
C992       C1058   1.483       .  S
C993        H998   1.088       .  S
C993        C994   1.349       .  D
C994       C1033   1.500       .  S
C999       C1000   1.535       .  S
C999       C1005   1.506       .  S
C999       C1003   1.522       .  S
C999       C1204   1.455       .  S
C1000      H1007   1.082       .  S
C1000      C1001   1.387       .  D
C1001      C1190   1.548       .  S
C1001      C1002   1.568       .  S
C1002      C1006   1.564       .  S
C1002      C1004   1.549       .  S
C1002      H1008   1.091       .  S
C1003      H1009   1.088       .  S
C1003      C1004   1.363       .  D
C1005      H1010   1.088       .  S
C1005      C1006   1.349       .  D
C1006      C1036   1.500       .  S
C1011      C1012   1.522       .  S
C1011      C1017   1.506       .  S
C1011      C1015   1.535       .  S
C1011      C1209   1.455       .  S
C1012      H1019   1.088       .  S
C1012      C1013   1.363       .  D
C1013      C1014   1.549       .  S
C1014      C1018   1.564       .  S
C1014      C1016   1.568       .  S
C1014      H1020   1.091       .  S
C1015      H1021   1.082       .  S
C1015      C1016   1.387       .  D
C1016      C1189   1.548       .  S
C1017      H1022   1.088       .  S
C1017      C1018   1.349       .  D
C1018      C1034   1.500       .  S
O1023      V1031   1.922       .  S
O1023      C1033   1.265       .  A
O1024      C1034   1.271       .  A
O1025      C1035   1.265       .  A
O1026      C1036   1.271       .  A
O1027      V1032   1.922       .  S
O1027      C1036   1.265       .  A
O1028      C1035   1.271       .  A
O1029      C1034   1.265       .  A
O1030      C1033   1.271       .  A
N1037      H1069   1.041       .  S
N1037      C1042   1.340       .  A
N1038      C1045   1.357       .  A
N1038      C1046   1.356       .  A
N1039      H1070   1.044       .  S
N1039      C1044   1.362       .  A
N1040      C1047   1.357       .  A
N1040      C1048   1.356       .  A
C1041      C1049   1.382       .  A
C1041      C1057   1.383       .  A
C1042      C1058   1.383       .  A
C1042      C1050   1.382       .  A
C1043      C1051   1.385       .  A
C1043      C1060   1.428       .  A
C1044      C1059   1.428       .  A
C1044      C1052   1.385       .  A
C1045      C1057   1.410       .  A
C1045      C1053   1.372       .  A
C1046      C1060   1.433       .  A
C1046      C1054   1.393       .  A
C1047      C1055   1.372       .  A
C1047      C1058   1.410       .  A
C1048      C1056   1.393       .  A
C1048      C1059   1.433       .  A
C1049      H1061   1.075       .  S
C1050      H1062   1.075       .  S
C1051      H1063   1.083       .  S
C1052      H1064   1.083       .  S
C1053      C1054   1.369       .  A
C1053      H1065   1.083       .  S
C1054      H1066   1.071       .  S
C1055      C1056   1.369       .  A
C1055      H1067   1.083       .  S
C1056      H1068   1.071       .  S
C1059      C1134   1.548       .  S
C1060      C1143   1.548       .  S
N1071      H1103   1.040       .  S
N1071      C1076   1.340       .  A
N1071      C1075   1.340       .  A
N1072      C1079   1.357       .  A
N1072      C1080   1.356       .  A
N1073      H1104   1.044       .  S
N1073      C1078   1.362       .  A
N1073      C1077   1.362       .  A
N1074      C1081   1.357       .  A
N1074      C1082   1.356       .  A
C1075      C1083   1.382       .  A
C1075      C1091   1.383       .  A
C1076      C1092   1.383       .  A
C1076      C1084   1.382       .  A
C1077      C1085   1.385       .  A
C1077      C1094   1.428       .  A
C1078      C1093   1.428       .  A
C1078      C1086   1.385       .  A
C1079      C1091   1.410       .  A
C1079      C1087   1.372       .  A
C1080      C1094   1.433       .  A
C1080      C1088   1.393       .  A
C1081      C1089   1.372       .  A
C1081      C1092   1.410       .  A
C1082      C1090   1.393       .  A
C1082      C1093   1.433       .  A
C1083      C1084   1.363       .  A
C1083      H1095   1.075       .  S
C1084      H1096   1.075       .  S
C1085      C1086   1.375       .  A
C1085      H1097   1.083       .  S
C1086      H1098   1.083       .  S
C1087      C1088   1.368       .  A
C1087      H1099   1.083       .  S
C1088      H1100   1.071       .  S
C1089      C1090   1.368       .  A
C1089      H1101   1.083       .  S
C1090      H1102   1.071       .  S
C1091      C1110   1.484       .  S
C1092      C1119   1.484       .  S
C1105      C1106   1.535       .  S
C1105      C1111   1.506       .  S
C1105      C1109   1.522       .  S
C1105      C1212   1.455       .  S
C1106      H1113   1.082       .  S
C1106      C1107   1.387       .  D
C1107      C1108   1.568       .  S
C1108      C1112   1.564       .  S
C1108      C1110   1.549       .  S
C1108      H1114   1.091       .  S
C1109      H1115   1.088       .  S
C1109      C1110   1.363       .  D
C1111      H1116   1.088       .  S
C1111      C1112   1.349       .  D
C1112      C1166   1.500       .  S
C1117      C1118   1.522       .  S
C1117      C1123   1.506       .  S
C1117      C1121   1.535       .  S
C1117      C1201   1.455       .  S
C1118      H1125   1.088       .  S
C1118      C1119   1.363       .  D
C1119      C1120   1.549       .  S
C1120      C1124   1.564       .  S
C1120      C1122   1.568       .  S
C1120      H1126   1.091       .  S
C1121      H1127   1.082       .  S
C1121      C1122   1.387       .  D
C1123      H1128   1.088       .  S
C1123      C1124   1.349       .  D
C1124      C1164   1.500       .  S
C1129      C1130   1.522       .  S
C1129      C1135   1.506       .  S
C1129      C1133   1.535       .  S
C1129      C1205   1.455       .  S
C1130      H1137   1.088       .  S
C1130      C1131   1.363       .  D
C1131      C1187   1.484       .  S
C1131      C1132   1.549       .  S
C1132      C1136   1.564       .  S
C1132      C1134   1.568       .  S
C1132      H1138   1.091       .  S
C1133      H1139   1.082       .  S
C1133      C1134   1.387       .  D
C1135      H1140   1.088       .  S
C1135      C1136   1.349       .  D
C1136      C1165   1.500       .  S
C1141      C1142   1.535       .  S
C1141      C1147   1.506       .  S
C1141      C1145   1.522       .  S
C1141      C1216   1.455       .  S
C1142      H1149   1.082       .  S
C1142      C1143   1.387       .  D
C1143      C1144   1.568       .  S
C1144      C1148   1.564       .  S
C1144      C1146   1.549       .  S
C1144      H1150   1.091       .  S
C1145      H1151   1.088       .  S
C1145      C1146   1.363       .  D
C1146      C1188   1.484       .  S
C1147      H1152   1.088       .  S
C1147      C1148   1.349       .  D
C1148      C1163   1.500       .  S
O1153      V1161   1.922       .  S
O1153      C1163   1.265       .  A
O1154      V2377   1.904   1_455  S
O1154      C1164   1.271       .  A
O1155      V1161   1.922       .  S
O1155      C1165   1.265       .  A
O1156      V2377   1.904   1_455  S
O1156      C1166   1.271       .  A
O1157      V1162   1.922       .  S
O1157      C1166   1.265       .  A
O1158      V2378   1.904       .  S
O1158      C1165   1.271       .  A
O1159      V1162   1.922       .  S
O1159      C1164   1.265       .  A
O1160      V2378   1.904       .  S
O1160      C1163   1.271       .  A
V1161      O2370   1.904       .  S
V1161      O2372   1.904       .  S
V1161      V2378   2.083       .  T
V1162      O2374   1.904   1_455  S
V1162      O2376   1.904   1_455  S
V1162      V2377   2.083   1_455  T
N1167      H1199   1.040       .  S
N1167      C1172   1.340       .  A
N1167      C1171   1.340       .  A
N1168      C1175   1.357       .  A
N1168      C1176   1.356       .  A
N1169      H1200   1.044       .  S
N1169      C1174   1.362       .  A
N1169      C1173   1.362       .  A
N1170      C1177   1.357       .  A
N1170      C1178   1.356       .  A
C1171      C1179   1.382       .  A
C1171      C1187   1.383       .  A
C1172      C1188   1.383       .  A
C1172      C1180   1.382       .  A
C1173      C1181   1.385       .  A
C1173      C1190   1.428       .  A
C1174      C1189   1.428       .  A
C1174      C1182   1.385       .  A
C1175      C1187   1.410       .  A
C1175      C1183   1.372       .  A
C1176      C1190   1.433       .  A
C1176      C1184   1.393       .  A
C1177      C1185   1.372       .  A
C1177      C1188   1.410       .  A
C1178      C1186   1.393       .  A
C1178      C1189   1.433       .  A
C1179      C1180   1.363       .  A
C1179      H1191   1.075       .  S
C1180      H1192   1.075       .  S
C1181      C1182   1.375       .  A
C1181      H1193   1.083       .  S
C1182      H1194   1.083       .  S
C1183      C1184   1.368       .  A
C1183      H1195   1.083       .  S
C1184      H1196   1.071       .  S
C1185      C1186   1.368       .  A
C1185      H1197   1.083       .  S
C1186      H1198   1.071       .  S
C1201      C1202   1.201       .  T
C1203      C1204   1.201       .  T
C1205      C1206   1.201       .  T
C1207      C1208   1.201       .  T
C1209      C1210   1.201       .  T
C1211      C1212   1.201       .  T
C1213      C1214   1.201       .  T
C1215      C1216   1.201       .  T
O1217      V1225   1.867   1_645  S
O1217      C1227   1.250       .  A
O1218      C1228   1.250       .  A
O1219      C1229   1.271       .  A
O1220      V1833   1.919   1_655  S
O1220      C1230   1.271       .  A
O1221      C1230   1.250       .  A
O1222      V1834   1.867   1_545  S
O1222      C1229   1.250       .  A
O1223      V1226   1.918       .  S
O1223      C1228   1.271       .  A
O1224      C1227   1.271       .  A
V1225      O1828   1.919   1_455  S
V1226      O1830   1.867       .  S
C1227      C1519   1.425       .  S
C1228      C1515   1.425       .  S
C1229      C1514   1.425       .  S
C1230      C1518   1.425       .  S
O1231      V1239   1.867   1_645  S
O1231      C1241   1.250       .  A
O1232      C1242   1.250       .  A
O1233      V1847   1.919   1_655  S
O1233      C1243   1.271       .  A
O1234      C1244   1.271       .  A
O1235      V1848   1.867   1_545  S
O1235      C1244   1.250       .  A
O1236      C1243   1.250       .  A
O1237      V1240   1.918       .  S
O1237      C1242   1.271       .  A
O1238      C1241   1.271       .  A
V1239      O1841   1.919   1_455  S
V1240      O1843   1.867       .  S
C1241      C1510   1.425       .  S
C1242      C1506   1.425       .  S
C1243      C1511   1.425       .  S
C1244      C1507   1.425       .  S
N1245      H1277   1.041       .  S
N1245      C1554   1.340   1_554  A
N1245      C1249   1.340       .  A
N1246      C1253   1.357       .  A
N1246      C1254   1.356       .  A
N1247      H1278   1.044       .  S
N1247      C1556   1.362   1_554  A
N1247      C1251   1.362       .  A
N1248      C1255   1.357       .  A
N1248      C1256   1.356       .  A
C1249      C1257   1.382       .  A
C1249      C1265   1.383       .  A
C1250      N1549   1.340       .  A
C1250      C1266   1.383       .  A
C1250      C1258   1.382       .  A
C1251      C1259   1.385       .  A
C1251      C1268   1.428       .  A
C1252      N1551   1.362       .  A
C1252      C1267   1.428       .  A
C1252      C1260   1.385       .  A
C1253      C1265   1.410       .  A
C1253      C1261   1.372       .  A
C1254      C1268   1.433       .  A
C1254      C1262   1.393       .  A
C1255      C1263   1.372       .  A
C1255      C1266   1.410       .  A
C1256      C1264   1.393       .  A
C1256      C1267   1.433       .  A
C1257      C1562   1.363   1_554  A
C1257      H1269   1.075       .  S
C1258      C1561   1.363       .  A
C1258      H1270   1.075       .  S
C1259      C1564   1.375   1_554  A
C1259      H1271   1.083       .  S
C1260      C1563   1.375       .  A
C1260      H1272   1.083       .  S
C1261      C1262   1.369       .  A
C1261      H1273   1.083       .  S
C1262      H1274   1.071       .  S
C1263      C1264   1.369       .  A
C1263      H1275   1.083       .  S
C1264      H1276   1.071       .  S
C1265      C1308   1.483       .  S
C1266      C1317   1.483       .  S
C1267      C1411   1.548       .  S
C1268      C1426   1.548       .  S
C1279      C1280   1.522       .  S
C1279      C1285   1.506       .  S
C1279      C1283   1.535       .  S
C1279      C1517   1.455       .  S
C1280      H1287   1.088       .  S
C1280      C1281   1.363       .  D
C1281      C1361   1.483       .  S
C1281      C1282   1.549       .  S
C1282      C1286   1.564       .  S
C1282      C1284   1.568       .  S
C1282      H1288   1.091       .  S
C1283      H1289   1.082       .  S
C1283      C1284   1.387       .  D
C1284      C1398   1.548       .  S
C1285      H1290   1.088       .  S
C1285      C1286   1.349       .  D
C1286      C1339   1.500       .  S
C1291      C1292   1.535       .  S
C1291      C1297   1.506       .  S
C1291      C1295   1.522       .  S
C1291      C1512   1.455       .  S
C1292      H1299   1.082       .  S
C1292      C1293   1.387       .  D
C1293      C1397   1.548       .  S
C1293      C1294   1.568       .  S
C1294      C1298   1.564       .  S
C1294      C1296   1.549       .  S
C1294      H1300   1.091       .  S
C1295      H1301   1.088       .  S
C1295      C1296   1.363       .  D
C1296      C1362   1.483       .  S
C1297      H1302   1.088       .  S
C1297      C1298   1.349       .  D
C1298      C1337   1.500       .  S
C1303      C1304   1.535       .  S
C1303      C1309   1.506       .  S
C1303      C1307   1.522       .  S
C1303      C1508   1.455       .  S
C1304      H1311   1.082       .  S
C1304      C1305   1.387       .  D
C1305      C1494   1.548       .  S
C1305      C1306   1.568       .  S
C1306      C1310   1.564       .  S
C1306      C1308   1.549       .  S
C1306      H1312   1.091       .  S
C1307      H1313   1.088       .  S
C1307      C1308   1.363       .  D
C1309      H1314   1.088       .  S
C1309      C1310   1.349       .  D
C1310      C1340   1.500       .  S
C1315      C1316   1.522       .  S
C1315      C1321   1.506       .  S
C1315      C1319   1.535       .  S
C1315      C1513   1.455       .  S
C1316      H1323   1.088       .  S
C1316      C1317   1.363       .  D
C1317      C1318   1.549       .  S
C1318      C1322   1.564       .  S
C1318      C1320   1.568       .  S
C1318      H1324   1.091       .  S
C1319      H1325   1.082       .  S
C1319      C1320   1.387       .  D
C1320      C1493   1.548       .  S
C1321      H1326   1.088       .  S
C1321      C1322   1.349       .  D
C1322      C1338   1.500       .  S
O1327      V1335   1.922       .  S
O1327      C1337   1.265       .  A
O1328      V2247   1.904   1_545  S
O1328      C1338   1.271       .  A
O1329      V1639   1.922       .  S
O1329      C1339   1.265       .  A
O1330      V1943   1.904   1_545  S
O1330      C1340   1.271       .  A
O1331      V1336   1.922       .  S
O1331      C1340   1.265       .  A
O1332      V2248   1.904       .  S
O1332      C1339   1.271       .  A
O1333      V1640   1.922       .  S
O1333      C1338   1.265       .  A
O1334      V1944   1.904       .  S
O1334      C1337   1.271       .  A
V1335      O2240   1.904   1_554  S
V1335      O1633   1.922   1_554  S
V1335      O1938   1.904       .  S
V1335      V1944   2.083       .  T
V1336      O2244   1.904   1_544  S
V1336      O1637   1.922   1_554  S
V1336      O1942   1.904   1_545  S
V1336      V1943   2.083   1_545  T
N1341      H1373   1.041       .  S
N1341      C1346   1.340       .  A
N1341      C1649   1.340   1_554  A
N1342      C1349   1.357       .  A
N1342      C1350   1.356       .  A
N1343      H1374   1.044       .  S
N1343      C1348   1.362       .  A
N1343      C1651   1.362   1_554  A
N1344      C1351   1.357       .  A
N1344      C1352   1.356       .  A
C1345      N1645   1.340       .  A
C1345      C1353   1.382       .  A
C1345      C1361   1.383       .  A
C1346      C1362   1.383       .  A
C1346      C1354   1.382       .  A
C1347      N1647   1.362       .  A
C1347      C1355   1.385       .  A
C1347      C1364   1.428       .  A
C1348      C1363   1.428       .  A
C1348      C1356   1.385       .  A
C1349      C1361   1.410       .  A
C1349      C1357   1.372       .  A
C1350      C1364   1.433       .  A
C1350      C1358   1.393       .  A
C1351      C1359   1.372       .  A
C1351      C1362   1.410       .  A
C1352      C1360   1.393       .  A
C1352      C1363   1.433       .  A
C1353      C1658   1.363       .  A
C1353      H1365   1.075       .  S
C1354      C1657   1.363   1_554  A
C1354      H1366   1.075       .  S
C1355      C1660   1.375       .  A
C1355      H1367   1.083       .  S
C1356      C1659   1.375   1_554  A
C1356      H1368   1.083       .  S
C1357      C1358   1.369       .  A
C1357      H1369   1.083       .  S
C1358      H1370   1.071       .  S
C1359      C1360   1.369       .  A
C1359      H1371   1.083       .  S
C1360      H1372   1.071       .  S
C1363      C1438   1.548       .  S
C1364      C1447   1.548       .  S
N1375      H1407   1.041       .  S
N1375      C1380   1.340       .  A
N1375      C1379   1.340       .  A
N1376      C1383   1.357       .  A
N1376      C1384   1.356       .  A
N1377      H1408   1.044       .  S
N1377      C1382   1.362       .  A
N1377      C1381   1.362       .  A
N1378      C1385   1.357       .  A
N1378      C1386   1.356       .  A
C1379      C1387   1.382       .  A
C1379      C1395   1.383       .  A
C1380      C1396   1.383       .  A
C1380      C1388   1.382       .  A
C1381      C1389   1.385       .  A
C1381      C1398   1.428       .  A
C1382      C1397   1.428       .  A
C1382      C1390   1.385       .  A
C1383      C1395   1.410       .  A
C1383      C1391   1.372       .  A
C1384      C1398   1.433       .  A
C1384      C1392   1.393       .  A
C1385      C1393   1.372       .  A
C1385      C1396   1.410       .  A
C1386      C1394   1.393       .  A
C1386      C1397   1.433       .  A
C1387      C1388   1.363       .  A
C1387      H1399   1.075       .  S
C1388      H1400   1.075       .  S
C1389      C1390   1.375       .  A
C1389      H1401   1.083       .  S
C1390      H1402   1.083       .  S
C1391      C1392   1.368       .  A
C1391      H1403   1.083       .  S
C1392      H1404   1.071       .  S
C1393      C1394   1.368       .  A
C1393      H1405   1.083       .  S
C1394      H1406   1.071       .  S
C1395      C1414   1.484       .  S
C1396      C1423   1.484       .  S
C1409      C1410   1.535       .  S
C1409      C1415   1.506       .  S
C1409      C1413   1.522       .  S
C1409      C1516   1.455       .  S
C1410      H1417   1.082       .  S
C1410      C1411   1.387       .  D
C1411      C1412   1.568       .  S
C1412      C1416   1.564       .  S
C1412      C1414   1.549       .  S
C1412      H1418   1.091       .  S
C1413      H1419   1.088       .  S
C1413      C1414   1.363       .  D
C1415      H1420   1.088       .  S
C1415      C1416   1.349       .  D
C1416      C1470   1.500       .  S
C1421      C1422   1.522       .  S
C1421      C1427   1.506       .  S
C1421      C1425   1.535       .  S
C1421      C1505   1.455       .  S
C1422      H1429   1.088       .  S
C1422      C1423   1.363       .  D
C1423      C1424   1.549       .  S
C1424      C1428   1.564       .  S
C1424      C1426   1.568       .  S
C1424      H1430   1.091       .  S
C1425      H1431   1.082       .  S
C1425      C1426   1.387       .  D
C1427      H1432   1.088       .  S
C1427      C1428   1.349       .  D
C1428      C1468   1.500       .  S
C1433      C1434   1.522       .  S
C1433      C1439   1.506       .  S
C1433      C1437   1.535       .  S
C1433      C1509   1.455       .  S
C1434      H1441   1.088       .  S
C1434      C1435   1.363       .  D
C1435      C1491   1.484       .  S
C1435      C1436   1.549       .  S
C1436      C1440   1.564       .  S
C1436      C1438   1.568       .  S
C1436      H1442   1.091       .  S
C1437      H1443   1.082       .  S
C1437      C1438   1.387       .  D
C1439      H1444   1.088       .  S
C1439      C1440   1.349       .  D
C1440      C1469   1.500       .  S
C1445      C1446   1.535       .  S
C1445      C1451   1.506       .  S
C1445      C1449   1.522       .  S
C1445      C1520   1.455       .  S
C1446      H1453   1.082       .  S
C1446      C1447   1.387       .  D
C1447      C1448   1.568       .  S
C1448      C1452   1.564       .  S
C1448      C1450   1.549       .  S
C1448      H1454   1.091       .  S
C1449      H1455   1.088       .  S
C1449      C1450   1.363       .  D
C1450      C1492   1.484       .  S
C1451      H1456   1.088       .  S
C1451      C1452   1.349       .  D
C1452      C1467   1.500       .  S
O1457      V1465   1.922       .  S
O1457      C1467   1.265       .  A
O1458      C1468   1.271       .  A
O1459      V1465   1.922       .  S
O1459      C1469   1.265       .  A
O1460      C1470   1.271       .  A
O1461      V1466   1.922       .  S
O1461      C1470   1.265       .  A
O1462      C1469   1.271       .  A
O1463      V1466   1.922       .  S
O1463      C1468   1.265       .  A
O1464      C1467   1.271       .  A
N1471      H1503   1.040       .  S
N1471      C1476   1.340       .  A
N1471      C1475   1.340       .  A
N1472      C1479   1.357       .  A
N1472      C1480   1.356       .  A
N1473      H1504   1.044       .  S
N1473      C1478   1.362       .  A
N1473      C1477   1.362       .  A
N1474      C1481   1.357       .  A
N1474      C1482   1.356       .  A
C1475      C1483   1.382       .  A
C1475      C1491   1.383       .  A
C1476      C1492   1.383       .  A
C1476      C1484   1.382       .  A
C1477      C1485   1.385       .  A
C1477      C1494   1.428       .  A
C1478      C1493   1.428       .  A
C1478      C1486   1.385       .  A
C1479      C1491   1.410       .  A
C1479      C1487   1.372       .  A
C1480      C1494   1.433       .  A
C1480      C1488   1.393       .  A
C1481      C1489   1.372       .  A
C1481      C1492   1.410       .  A
C1482      C1490   1.393       .  A
C1482      C1493   1.433       .  A
C1483      C1484   1.363       .  A
C1483      H1495   1.075       .  S
C1484      H1496   1.075       .  S
C1485      C1486   1.375       .  A
C1485      H1497   1.083       .  S
C1486      H1498   1.083       .  S
C1487      C1488   1.368       .  A
C1487      H1499   1.083       .  S
C1488      H1500   1.071       .  S
C1489      C1490   1.368       .  A
C1489      H1501   1.083       .  S
C1490      H1502   1.071       .  S
C1505      C1506   1.201       .  T
C1507      C1508   1.201       .  T
C1509      C1510   1.201       .  T
C1511      C1512   1.201       .  T
C1513      C1514   1.201       .  T
C1515      C1516   1.201       .  T
C1517      C1518   1.201       .  T
C1519      C1520   1.201       .  T
O1521      V1529   1.867   1_645  S
O1521      C1531   1.250       .  A
O1522      C1532   1.250       .  A
O1523      C1533   1.271       .  A
O1524      V2137   1.919   1_655  S
O1524      C1534   1.271       .  A
O1525      C1534   1.250       .  A
O1526      V2138   1.867   1_545  S
O1526      C1533   1.250       .  A
O1527      V1530   1.918       .  S
O1527      C1532   1.271       .  A
O1528      C1531   1.271       .  A
V1529      O2132   1.919   1_455  S
V1530      O2134   1.867       .  S
C1531      C1823   1.425       .  S
C1532      C1819   1.425       .  S
C1533      C1818   1.425       .  S
C1534      C1822   1.425       .  S
O1535      V1543   1.867   1_645  S
O1535      C1545   1.250       .  A
O1536      C1546   1.250       .  A
O1537      V2151   1.919   1_655  S
O1537      C1547   1.271       .  A
O1538      C1548   1.271       .  A
O1539      V2152   1.867   1_545  S
O1539      C1548   1.250       .  A
O1540      C1547   1.250       .  A
O1541      V1544   1.918       .  S
O1541      C1546   1.271       .  A
O1542      C1545   1.271       .  A
V1543      O2145   1.919   1_455  S
V1544      O2147   1.867       .  S
C1545      C1814   1.425       .  S
C1546      C1810   1.425       .  S
C1547      C1815   1.425       .  S
C1548      C1811   1.425       .  S
N1549      H1581   1.041       .  S
N1549      C1553   1.340       .  A
N1550      C1557   1.357       .  A
N1550      C1558   1.356       .  A
N1551      H1582   1.044       .  S
N1551      C1555   1.362       .  A
N1552      C1559   1.357       .  A
N1552      C1560   1.356       .  A
C1553      C1561   1.382       .  A
C1553      C1569   1.383       .  A
C1554      C1570   1.383       .  A
C1554      C1562   1.382       .  A
C1555      C1563   1.385       .  A
C1555      C1572   1.428       .  A
C1556      C1571   1.428       .  A
C1556      C1564   1.385       .  A
C1557      C1569   1.410       .  A
C1557      C1565   1.372       .  A
C1558      C1572   1.433       .  A
C1558      C1566   1.393       .  A
C1559      C1567   1.372       .  A
C1559      C1570   1.410       .  A
C1560      C1568   1.393       .  A
C1560      C1571   1.433       .  A
C1561      H1573   1.075       .  S
C1562      H1574   1.075       .  S
C1563      H1575   1.083       .  S
C1564      H1576   1.083       .  S
C1565      C1566   1.369       .  A
C1565      H1577   1.083       .  S
C1566      H1578   1.071       .  S
C1567      C1568   1.369       .  A
C1567      H1579   1.083       .  S
C1568      H1580   1.071       .  S
C1569      C1612   1.483       .  S
C1570      C1621   1.483       .  S
C1571      C1715   1.548       .  S
C1572      C1730   1.548       .  S
C1583      C1584   1.522       .  S
C1583      C1589   1.506       .  S
C1583      C1587   1.535       .  S
C1583      C1821   1.455       .  S
C1584      H1591   1.088       .  S
C1584      C1585   1.363       .  D
C1585      C1665   1.483       .  S
C1585      C1586   1.549       .  S
C1586      C1590   1.564       .  S
C1586      C1588   1.568       .  S
C1586      H1592   1.091       .  S
C1587      H1593   1.082       .  S
C1587      C1588   1.387       .  D
C1588      C1702   1.548       .  S
C1589      H1594   1.088       .  S
C1589      C1590   1.349       .  D
C1590      C1643   1.500       .  S
C1595      C1596   1.535       .  S
C1595      C1601   1.506       .  S
C1595      C1599   1.522       .  S
C1595      C1816   1.455       .  S
C1596      H1603   1.082       .  S
C1596      C1597   1.387       .  D
C1597      C1701   1.548       .  S
C1597      C1598   1.568       .  S
C1598      C1602   1.564       .  S
C1598      C1600   1.549       .  S
C1598      H1604   1.091       .  S
C1599      H1605   1.088       .  S
C1599      C1600   1.363       .  D
C1600      C1666   1.483       .  S
C1601      H1606   1.088       .  S
C1601      C1602   1.349       .  D
C1602      C1641   1.500       .  S
C1607      C1608   1.535       .  S
C1607      C1613   1.506       .  S
C1607      C1611   1.522       .  S
C1607      C1812   1.455       .  S
C1608      H1615   1.082       .  S
C1608      C1609   1.387       .  D
C1609      C1798   1.548       .  S
C1609      C1610   1.568       .  S
C1610      C1614   1.564       .  S
C1610      C1612   1.549       .  S
C1610      H1616   1.091       .  S
C1611      H1617   1.088       .  S
C1611      C1612   1.363       .  D
C1613      H1618   1.088       .  S
C1613      C1614   1.349       .  D
C1614      C1644   1.500       .  S
C1619      C1620   1.522       .  S
C1619      C1625   1.506       .  S
C1619      C1623   1.535       .  S
C1619      C1817   1.455       .  S
C1620      H1627   1.088       .  S
C1620      C1621   1.363       .  D
C1621      C1622   1.549       .  S
C1622      C1626   1.564       .  S
C1622      C1624   1.568       .  S
C1622      H1628   1.091       .  S
C1623      H1629   1.082       .  S
C1623      C1624   1.387       .  D
C1624      C1797   1.548       .  S
C1625      H1630   1.088       .  S
C1625      C1626   1.349       .  D
C1626      C1642   1.500       .  S
O1631      V1639   1.922       .  S
O1631      C1641   1.265       .  A
O1632      V1943   1.904   1_546  S
O1632      C1642   1.271       .  A
O1633      C1643   1.265       .  A
O1634      V2247   1.904   1_545  S
O1634      C1644   1.271       .  A
O1635      V1640   1.922       .  S
O1635      C1644   1.265       .  A
O1636      V1944   1.904   1_556  S
O1636      C1643   1.271       .  A
O1637      C1642   1.265       .  A
O1638      V2248   1.904       .  S
O1638      C1641   1.271       .  A
V1639      O1936   1.904       .  S
V1639      O2242   1.904       .  S
V1639      V2248   2.083       .  T
V1640      O1940   1.904   1_545  S
V1640      O2246   1.904   1_545  S
V1640      V2247   2.083   1_545  T
N1645      H1677   1.041       .  S
N1645      C1650   1.340       .  A
N1646      C1653   1.357       .  A
N1646      C1654   1.356       .  A
N1647      H1678   1.044       .  S
N1647      C1652   1.362       .  A
N1648      C1655   1.357       .  A
N1648      C1656   1.356       .  A
C1649      C1657   1.382       .  A
C1649      C1665   1.383       .  A
C1650      C1666   1.383       .  A
C1650      C1658   1.382       .  A
C1651      C1659   1.385       .  A
C1651      C1668   1.428       .  A
C1652      C1667   1.428       .  A
C1652      C1660   1.385       .  A
C1653      C1665   1.410       .  A
C1653      C1661   1.372       .  A
C1654      C1668   1.433       .  A
C1654      C1662   1.393       .  A
C1655      C1663   1.372       .  A
C1655      C1666   1.410       .  A
C1656      C1664   1.393       .  A
C1656      C1667   1.433       .  A
C1657      H1669   1.075       .  S
C1658      H1670   1.075       .  S
C1659      H1671   1.083       .  S
C1660      H1672   1.083       .  S
C1661      C1662   1.369       .  A
C1661      H1673   1.083       .  S
C1662      H1674   1.071       .  S
C1663      C1664   1.369       .  A
C1663      H1675   1.083       .  S
C1664      H1676   1.071       .  S
C1667      C1742   1.548       .  S
C1668      C1751   1.548       .  S
N1679      H1711   1.041       .  S
N1679      C1684   1.340       .  A
N1679      C1683   1.340       .  A
N1680      C1687   1.357       .  A
N1680      C1688   1.356       .  A
N1681      H1712   1.044       .  S
N1681      C1686   1.362       .  A
N1681      C1685   1.362       .  A
N1682      C1689   1.357       .  A
N1682      C1690   1.356       .  A
C1683      C1691   1.382       .  A
C1683      C1699   1.383       .  A
C1684      C1700   1.383       .  A
C1684      C1692   1.382       .  A
C1685      C1693   1.385       .  A
C1685      C1702   1.428       .  A
C1686      C1701   1.428       .  A
C1686      C1694   1.385       .  A
C1687      C1699   1.410       .  A
C1687      C1695   1.372       .  A
C1688      C1702   1.433       .  A
C1688      C1696   1.393       .  A
C1689      C1697   1.372       .  A
C1689      C1700   1.410       .  A
C1690      C1698   1.393       .  A
C1690      C1701   1.433       .  A
C1691      C1692   1.363       .  A
C1691      H1703   1.075       .  S
C1692      H1704   1.075       .  S
C1693      C1694   1.375       .  A
C1693      H1705   1.083       .  S
C1694      H1706   1.083       .  S
C1695      C1696   1.368       .  A
C1695      H1707   1.083       .  S
C1696      H1708   1.071       .  S
C1697      C1698   1.368       .  A
C1697      H1709   1.083       .  S
C1698      H1710   1.071       .  S
C1699      C1718   1.484       .  S
C1700      C1727   1.484       .  S
C1713      C1714   1.535       .  S
C1713      C1719   1.506       .  S
C1713      C1717   1.522       .  S
C1713      C1820   1.455       .  S
C1714      H1721   1.082       .  S
C1714      C1715   1.387       .  D
C1715      C1716   1.568       .  S
C1716      C1720   1.564       .  S
C1716      C1718   1.549       .  S
C1716      H1722   1.091       .  S
C1717      H1723   1.088       .  S
C1717      C1718   1.363       .  D
C1719      H1724   1.088       .  S
C1719      C1720   1.349       .  D
C1720      C1774   1.500       .  S
C1725      C1726   1.522       .  S
C1725      C1731   1.506       .  S
C1725      C1729   1.535       .  S
C1725      C1809   1.455       .  S
C1726      H1733   1.088       .  S
C1726      C1727   1.363       .  D
C1727      C1728   1.549       .  S
C1728      C1732   1.564       .  S
C1728      C1730   1.568       .  S
C1728      H1734   1.091       .  S
C1729      H1735   1.082       .  S
C1729      C1730   1.387       .  D
C1731      H1736   1.088       .  S
C1731      C1732   1.349       .  D
C1732      C1772   1.500       .  S
C1737      C1738   1.522       .  S
C1737      C1743   1.506       .  S
C1737      C1741   1.535       .  S
C1737      C1813   1.455       .  S
C1738      H1745   1.088       .  S
C1738      C1739   1.363       .  D
C1739      C1795   1.484       .  S
C1739      C1740   1.549       .  S
C1740      C1744   1.564       .  S
C1740      C1742   1.568       .  S
C1740      H1746   1.091       .  S
C1741      H1747   1.082       .  S
C1741      C1742   1.387       .  D
C1743      H1748   1.088       .  S
C1743      C1744   1.349       .  D
C1744      C1773   1.500       .  S
C1749      C1750   1.535       .  S
C1749      C1755   1.506       .  S
C1749      C1753   1.522       .  S
C1749      C1824   1.455       .  S
C1750      H1757   1.082       .  S
C1750      C1751   1.387       .  D
C1751      C1752   1.568       .  S
C1752      C1756   1.564       .  S
C1752      C1754   1.549       .  S
C1752      H1758   1.091       .  S
C1753      H1759   1.088       .  S
C1753      C1754   1.363       .  D
C1754      C1796   1.484       .  S
C1755      H1760   1.088       .  S
C1755      C1756   1.349       .  D
C1756      C1771   1.500       .  S
O1761      V1769   1.922       .  S
O1761      C1771   1.265       .  A
O1762      C1772   1.271       .  A
O1763      V1769   1.922       .  S
O1763      C1773   1.265       .  A
O1764      C1774   1.271       .  A
O1765      V1770   1.922       .  S
O1765      C1774   1.265       .  A
O1766      C1773   1.271       .  A
O1767      V1770   1.922       .  S
O1767      C1772   1.265       .  A
O1768      C1771   1.271       .  A
N1775      H1807   1.040       .  S
N1775      C1780   1.340       .  A
N1775      C1779   1.340       .  A
N1776      C1783   1.357       .  A
N1776      C1784   1.356       .  A
N1777      H1808   1.044       .  S
N1777      C1782   1.362       .  A
N1777      C1781   1.362       .  A
N1778      C1785   1.357       .  A
N1778      C1786   1.356       .  A
C1779      C1787   1.382       .  A
C1779      C1795   1.383       .  A
C1780      C1796   1.383       .  A
C1780      C1788   1.382       .  A
C1781      C1789   1.385       .  A
C1781      C1798   1.428       .  A
C1782      C1797   1.428       .  A
C1782      C1790   1.385       .  A
C1783      C1795   1.410       .  A
C1783      C1791   1.372       .  A
C1784      C1798   1.433       .  A
C1784      C1792   1.393       .  A
C1785      C1793   1.372       .  A
C1785      C1796   1.410       .  A
C1786      C1794   1.393       .  A
C1786      C1797   1.433       .  A
C1787      C1788   1.363       .  A
C1787      H1799   1.075       .  S
C1788      H1800   1.075       .  S
C1789      C1790   1.375       .  A
C1789      H1801   1.083       .  S
C1790      H1802   1.083       .  S
C1791      C1792   1.368       .  A
C1791      H1803   1.083       .  S
C1792      H1804   1.071       .  S
C1793      C1794   1.368       .  A
C1793      H1805   1.083       .  S
C1794      H1806   1.071       .  S
C1809      C1810   1.201       .  T
C1811      C1812   1.201       .  T
C1813      C1814   1.201       .  T
C1815      C1816   1.201       .  T
C1817      C1818   1.201       .  T
C1819      C1820   1.201       .  T
C1821      C1822   1.201       .  T
C1823      C1824   1.201       .  T
O1825      V1833   1.867   1_655  S
O1825      C1835   1.250       .  A
O1826      C1836   1.250       .  A
O1827      C1837   1.271       .  A
O1828      C1838   1.271       .  A
O1829      C1838   1.250       .  A
O1830      C1837   1.250       .  A
O1831      V1834   1.918       .  S
O1831      C1836   1.271       .  A
O1832      C1835   1.271       .  A
C1835      C2127   1.425       .  S
C1836      C2123   1.425       .  S
C1837      C2122   1.425       .  S
C1838      C2126   1.425       .  S
O1839      V1847   1.867   1_655  S
O1839      C1849   1.250       .  A
O1840      C1850   1.250       .  A
O1841      C1851   1.271       .  A
O1842      C1852   1.271       .  A
O1843      C1852   1.250       .  A
O1844      C1851   1.250       .  A
O1845      V1848   1.918       .  S
O1845      C1850   1.271       .  A
O1846      C1849   1.271       .  A
C1849      C2118   1.425       .  S
C1850      C2114   1.425       .  S
C1851      C2119   1.425       .  S
C1852      C2115   1.425       .  S
N1853      H1885   1.041       .  S
N1853      C2162   1.340   1_554  A
N1853      C1857   1.340       .  A
N1854      C1861   1.357       .  A
N1854      C1862   1.356       .  A
N1855      H1886   1.044       .  S
N1855      C2164   1.362   1_554  A
N1855      C1859   1.362       .  A
N1856      C1863   1.357       .  A
N1856      C1864   1.356       .  A
C1857      C1865   1.382       .  A
C1857      C1873   1.383       .  A
C1858      N2157   1.340       .  A
C1858      C1874   1.383       .  A
C1858      C1866   1.382       .  A
C1859      C1867   1.385       .  A
C1859      C1876   1.428       .  A
C1860      N2159   1.362       .  A
C1860      C1875   1.428       .  A
C1860      C1868   1.385       .  A
C1861      C1873   1.410       .  A
C1861      C1869   1.372       .  A
C1862      C1876   1.433       .  A
C1862      C1870   1.393       .  A
C1863      C1871   1.372       .  A
C1863      C1874   1.410       .  A
C1864      C1872   1.393       .  A
C1864      C1875   1.433       .  A
C1865      C2170   1.363   1_554  A
C1865      H1877   1.075       .  S
C1866      C2169   1.363       .  A
C1866      H1878   1.075       .  S
C1867      C2172   1.375   1_554  A
C1867      H1879   1.083       .  S
C1868      C2171   1.375       .  A
C1868      H1880   1.083       .  S
C1869      C1870   1.369       .  A
C1869      H1881   1.083       .  S
C1870      H1882   1.071       .  S
C1871      C1872   1.369       .  A
C1871      H1883   1.083       .  S
C1872      H1884   1.071       .  S
C1873      C1916   1.483       .  S
C1874      C1925   1.483       .  S
C1875      C2019   1.548       .  S
C1876      C2034   1.548       .  S
C1887      C1888   1.522       .  S
C1887      C1893   1.506       .  S
C1887      C1891   1.535       .  S
C1887      C2125   1.455       .  S
C1888      H1895   1.088       .  S
C1888      C1889   1.363       .  D
C1889      C1969   1.483       .  S
C1889      C1890   1.549       .  S
C1890      C1894   1.564       .  S
C1890      C1892   1.568       .  S
C1890      H1896   1.091       .  S
C1891      H1897   1.082       .  S
C1891      C1892   1.387       .  D
C1892      C2006   1.548       .  S
C1893      H1898   1.088       .  S
C1893      C1894   1.349       .  D
C1894      C1947   1.500       .  S
C1899      C1900   1.535       .  S
C1899      C1905   1.506       .  S
C1899      C1903   1.522       .  S
C1899      C2120   1.455       .  S
C1900      H1907   1.082       .  S
C1900      C1901   1.387       .  D
C1901      C2005   1.548       .  S
C1901      C1902   1.568       .  S
C1902      C1906   1.564       .  S
C1902      C1904   1.549       .  S
C1902      H1908   1.091       .  S
C1903      H1909   1.088       .  S
C1903      C1904   1.363       .  D
C1904      C1970   1.483       .  S
C1905      H1910   1.088       .  S
C1905      C1906   1.349       .  D
C1906      C1945   1.500       .  S
C1911      C1912   1.535       .  S
C1911      C1917   1.506       .  S
C1911      C1915   1.522       .  S
C1911      C2116   1.455       .  S
C1912      H1919   1.082       .  S
C1912      C1913   1.387       .  D
C1913      C2102   1.548       .  S
C1913      C1914   1.568       .  S
C1914      C1918   1.564       .  S
C1914      C1916   1.549       .  S
C1914      H1920   1.091       .  S
C1915      H1921   1.088       .  S
C1915      C1916   1.363       .  D
C1917      H1922   1.088       .  S
C1917      C1918   1.349       .  D
C1918      C1948   1.500       .  S
C1923      C1924   1.522       .  S
C1923      C1929   1.506       .  S
C1923      C1927   1.535       .  S
C1923      C2121   1.455       .  S
C1924      H1931   1.088       .  S
C1924      C1925   1.363       .  D
C1925      C1926   1.549       .  S
C1926      C1930   1.564       .  S
C1926      C1928   1.568       .  S
C1926      H1932   1.091       .  S
C1927      H1933   1.082       .  S
C1927      C1928   1.387       .  D
C1928      C2101   1.548       .  S
C1929      H1934   1.088       .  S
C1929      C1930   1.349       .  D
C1930      C1946   1.500       .  S
O1935      V1943   1.922       .  S
O1935      C1945   1.265       .  A
O1936      C1946   1.271       .  A
O1937      V2247   1.922       .  S
O1937      C1947   1.265       .  A
O1938      C1948   1.271       .  A
O1939      V1944   1.922       .  S
O1939      C1948   1.265       .  A
O1940      C1947   1.271       .  A
O1941      V2248   1.922       .  S
O1941      C1946   1.265       .  A
O1942      C1945   1.271       .  A
V1943      O2241   1.922   1_554  S
V1944      O2245   1.922   1_554  S
N1949      H1981   1.041       .  S
N1949      C1954   1.340       .  A
N1949      C2257   1.340   1_554  A
N1950      C1957   1.357       .  A
N1950      C1958   1.356       .  A
N1951      H1982   1.044       .  S
N1951      C1956   1.362       .  A
N1951      C2259   1.362   1_554  A
N1952      C1959   1.357       .  A
N1952      C1960   1.356       .  A
C1953      N2253   1.340       .  A
C1953      C1961   1.382       .  A
C1953      C1969   1.383       .  A
C1954      C1970   1.383       .  A
C1954      C1962   1.382       .  A
C1955      N2255   1.362       .  A
C1955      C1963   1.385       .  A
C1955      C1972   1.428       .  A
C1956      C1971   1.428       .  A
C1956      C1964   1.385       .  A
C1957      C1969   1.410       .  A
C1957      C1965   1.372       .  A
C1958      C1972   1.433       .  A
C1958      C1966   1.393       .  A
C1959      C1967   1.372       .  A
C1959      C1970   1.410       .  A
C1960      C1968   1.393       .  A
C1960      C1971   1.433       .  A
C1961      C2266   1.363       .  A
C1961      H1973   1.075       .  S
C1962      C2265   1.363   1_554  A
C1962      H1974   1.075       .  S
C1963      C2268   1.375       .  A
C1963      H1975   1.083       .  S
C1964      C2267   1.375   1_554  A
C1964      H1976   1.083       .  S
C1965      C1966   1.369       .  A
C1965      H1977   1.083       .  S
C1966      H1978   1.071       .  S
C1967      C1968   1.369       .  A
C1967      H1979   1.083       .  S
C1968      H1980   1.071       .  S
C1971      C2046   1.548       .  S
C1972      C2055   1.548       .  S
N1983      H2015   1.041       .  S
N1983      C1988   1.340       .  A
N1983      C1987   1.340       .  A
N1984      C1991   1.357       .  A
N1984      C1992   1.356       .  A
N1985      H2016   1.044       .  S
N1985      C1990   1.362       .  A
N1985      C1989   1.362       .  A
N1986      C1993   1.357       .  A
N1986      C1994   1.356       .  A
C1987      C1995   1.382       .  A
C1987      C2003   1.383       .  A
C1988      C2004   1.383       .  A
C1988      C1996   1.382       .  A
C1989      C1997   1.385       .  A
C1989      C2006   1.428       .  A
C1990      C2005   1.428       .  A
C1990      C1998   1.385       .  A
C1991      C2003   1.410       .  A
C1991      C1999   1.372       .  A
C1992      C2006   1.433       .  A
C1992      C2000   1.393       .  A
C1993      C2001   1.372       .  A
C1993      C2004   1.410       .  A
C1994      C2002   1.393       .  A
C1994      C2005   1.433       .  A
C1995      C1996   1.363       .  A
C1995      H2007   1.075       .  S
C1996      H2008   1.075       .  S
C1997      C1998   1.375       .  A
C1997      H2009   1.083       .  S
C1998      H2010   1.083       .  S
C1999      C2000   1.368       .  A
C1999      H2011   1.083       .  S
C2000      H2012   1.071       .  S
C2001      C2002   1.368       .  A
C2001      H2013   1.083       .  S
C2002      H2014   1.071       .  S
C2003      C2022   1.484       .  S
C2004      C2031   1.484       .  S
C2017      C2018   1.535       .  S
C2017      C2023   1.506       .  S
C2017      C2021   1.522       .  S
C2017      C2124   1.455       .  S
C2018      H2025   1.082       .  S
C2018      C2019   1.387       .  D
C2019      C2020   1.568       .  S
C2020      C2024   1.564       .  S
C2020      C2022   1.549       .  S
C2020      H2026   1.091       .  S
C2021      H2027   1.088       .  S
C2021      C2022   1.363       .  D
C2023      H2028   1.088       .  S
C2023      C2024   1.349       .  D
C2024      C2078   1.500       .  S
C2029      C2030   1.522       .  S
C2029      C2035   1.506       .  S
C2029      C2033   1.535       .  S
C2029      C2113   1.455       .  S
C2030      H2037   1.088       .  S
C2030      C2031   1.363       .  D
C2031      C2032   1.549       .  S
C2032      C2036   1.564       .  S
C2032      C2034   1.568       .  S
C2032      H2038   1.091       .  S
C2033      H2039   1.082       .  S
C2033      C2034   1.387       .  D
C2035      H2040   1.088       .  S
C2035      C2036   1.349       .  D
C2036      C2076   1.500       .  S
C2041      C2042   1.522       .  S
C2041      C2047   1.506       .  S
C2041      C2045   1.535       .  S
C2041      C2117   1.455       .  S
C2042      H2049   1.088       .  S
C2042      C2043   1.363       .  D
C2043      C2099   1.484       .  S
C2043      C2044   1.549       .  S
C2044      C2048   1.564       .  S
C2044      C2046   1.568       .  S
C2044      H2050   1.091       .  S
C2045      H2051   1.082       .  S
C2045      C2046   1.387       .  D
C2047      H2052   1.088       .  S
C2047      C2048   1.349       .  D
C2048      C2077   1.500       .  S
C2053      C2054   1.535       .  S
C2053      C2059   1.506       .  S
C2053      C2057   1.522       .  S
C2053      C2128   1.455       .  S
C2054      H2061   1.082       .  S
C2054      C2055   1.387       .  D
C2055      C2056   1.568       .  S
C2056      C2060   1.564       .  S
C2056      C2058   1.549       .  S
C2056      H2062   1.091       .  S
C2057      H2063   1.088       .  S
C2057      C2058   1.363       .  D
C2058      C2100   1.484       .  S
C2059      H2064   1.088       .  S
C2059      C2060   1.349       .  D
C2060      C2075   1.500       .  S
O2065      V2073   1.922       .  S
O2065      C2075   1.265       .  A
O2066      C2076   1.271       .  A
O2067      V2073   1.922       .  S
O2067      C2077   1.265       .  A
O2068      C2078   1.271       .  A
O2069      V2074   1.922       .  S
O2069      C2078   1.265       .  A
O2070      C2077   1.271       .  A
O2071      V2074   1.922       .  S
O2071      C2076   1.265       .  A
O2072      C2075   1.271       .  A
N2079      H2111   1.040       .  S
N2079      C2084   1.340       .  A
N2079      C2083   1.340       .  A
N2080      C2087   1.357       .  A
N2080      C2088   1.356       .  A
N2081      H2112   1.044       .  S
N2081      C2086   1.362       .  A
N2081      C2085   1.362       .  A
N2082      C2089   1.357       .  A
N2082      C2090   1.356       .  A
C2083      C2091   1.382       .  A
C2083      C2099   1.383       .  A
C2084      C2100   1.383       .  A
C2084      C2092   1.382       .  A
C2085      C2093   1.385       .  A
C2085      C2102   1.428       .  A
C2086      C2101   1.428       .  A
C2086      C2094   1.385       .  A
C2087      C2099   1.410       .  A
C2087      C2095   1.372       .  A
C2088      C2102   1.433       .  A
C2088      C2096   1.393       .  A
C2089      C2097   1.372       .  A
C2089      C2100   1.410       .  A
C2090      C2098   1.393       .  A
C2090      C2101   1.433       .  A
C2091      C2092   1.363       .  A
C2091      H2103   1.075       .  S
C2092      H2104   1.075       .  S
C2093      C2094   1.375       .  A
C2093      H2105   1.083       .  S
C2094      H2106   1.083       .  S
C2095      C2096   1.368       .  A
C2095      H2107   1.083       .  S
C2096      H2108   1.071       .  S
C2097      C2098   1.368       .  A
C2097      H2109   1.083       .  S
C2098      H2110   1.071       .  S
C2113      C2114   1.201       .  T
C2115      C2116   1.201       .  T
C2117      C2118   1.201       .  T
C2119      C2120   1.201       .  T
C2121      C2122   1.201       .  T
C2123      C2124   1.201       .  T
C2125      C2126   1.201       .  T
C2127      C2128   1.201       .  T
O2129      V2137   1.867   1_655  S
O2129      C2139   1.250       .  A
O2130      C2140   1.250       .  A
O2131      C2141   1.271       .  A
O2132      C2142   1.271       .  A
O2133      C2142   1.250       .  A
O2134      C2141   1.250       .  A
O2135      V2138   1.918       .  S
O2135      C2140   1.271       .  A
O2136      C2139   1.271       .  A
C2139      C2431   1.425       .  S
C2140      C2427   1.425       .  S
C2141      C2426   1.425       .  S
C2142      C2430   1.425       .  S
O2143      V2151   1.867   1_655  S
O2143      C2153   1.250       .  A
O2144      C2154   1.250       .  A
O2145      C2155   1.271       .  A
O2146      C2156   1.271       .  A
O2147      C2156   1.250       .  A
O2148      C2155   1.250       .  A
O2149      V2152   1.918       .  S
O2149      C2154   1.271       .  A
O2150      C2153   1.271       .  A
C2153      C2422   1.425       .  S
C2154      C2418   1.425       .  S
C2155      C2423   1.425       .  S
C2156      C2419   1.425       .  S
N2157      H2189   1.041       .  S
N2157      C2161   1.340       .  A
N2158      C2165   1.357       .  A
N2158      C2166   1.356       .  A
N2159      H2190   1.044       .  S
N2159      C2163   1.362       .  A
N2160      C2167   1.357       .  A
N2160      C2168   1.356       .  A
C2161      C2169   1.382       .  A
C2161      C2177   1.383       .  A
C2162      C2178   1.383       .  A
C2162      C2170   1.382       .  A
C2163      C2171   1.385       .  A
C2163      C2180   1.428       .  A
C2164      C2179   1.428       .  A
C2164      C2172   1.385       .  A
C2165      C2177   1.410       .  A
C2165      C2173   1.372       .  A
C2166      C2180   1.433       .  A
C2166      C2174   1.393       .  A
C2167      C2175   1.372       .  A
C2167      C2178   1.410       .  A
C2168      C2176   1.393       .  A
C2168      C2179   1.433       .  A
C2169      H2181   1.075       .  S
C2170      H2182   1.075       .  S
C2171      H2183   1.083       .  S
C2172      H2184   1.083       .  S
C2173      C2174   1.369       .  A
C2173      H2185   1.083       .  S
C2174      H2186   1.071       .  S
C2175      C2176   1.369       .  A
C2175      H2187   1.083       .  S
C2176      H2188   1.071       .  S
C2177      C2220   1.483       .  S
C2178      C2229   1.483       .  S
C2179      C2323   1.548       .  S
C2180      C2338   1.548       .  S
C2191      C2192   1.522       .  S
C2191      C2197   1.506       .  S
C2191      C2195   1.535       .  S
C2191      C2429   1.455       .  S
C2192      H2199   1.088       .  S
C2192      C2193   1.363       .  D
C2193      C2273   1.483       .  S
C2193      C2194   1.549       .  S
C2194      C2198   1.564       .  S
C2194      C2196   1.568       .  S
C2194      H2200   1.091       .  S
C2195      H2201   1.082       .  S
C2195      C2196   1.387       .  D
C2196      C2310   1.548       .  S
C2197      H2202   1.088       .  S
C2197      C2198   1.349       .  D
C2198      C2251   1.500       .  S
C2203      C2204   1.535       .  S
C2203      C2209   1.506       .  S
C2203      C2207   1.522       .  S
C2203      C2424   1.455       .  S
C2204      H2211   1.082       .  S
C2204      C2205   1.387       .  D
C2205      C2309   1.548       .  S
C2205      C2206   1.568       .  S
C2206      C2210   1.564       .  S
C2206      C2208   1.549       .  S
C2206      H2212   1.091       .  S
C2207      H2213   1.088       .  S
C2207      C2208   1.363       .  D
C2208      C2274   1.483       .  S
C2209      H2214   1.088       .  S
C2209      C2210   1.349       .  D
C2210      C2249   1.500       .  S
C2215      C2216   1.535       .  S
C2215      C2221   1.506       .  S
C2215      C2219   1.522       .  S
C2215      C2420   1.455       .  S
C2216      H2223   1.082       .  S
C2216      C2217   1.387       .  D
C2217      C2406   1.548       .  S
C2217      C2218   1.568       .  S
C2218      C2222   1.564       .  S
C2218      C2220   1.549       .  S
C2218      H2224   1.091       .  S
C2219      H2225   1.088       .  S
C2219      C2220   1.363       .  D
C2221      H2226   1.088       .  S
C2221      C2222   1.349       .  D
C2222      C2252   1.500       .  S
C2227      C2228   1.522       .  S
C2227      C2233   1.506       .  S
C2227      C2231   1.535       .  S
C2227      C2425   1.455       .  S
C2228      H2235   1.088       .  S
C2228      C2229   1.363       .  D
C2229      C2230   1.549       .  S
C2230      C2234   1.564       .  S
C2230      C2232   1.568       .  S
C2230      H2236   1.091       .  S
C2231      H2237   1.082       .  S
C2231      C2232   1.387       .  D
C2232      C2405   1.548       .  S
C2233      H2238   1.088       .  S
C2233      C2234   1.349       .  D
C2234      C2250   1.500       .  S
O2239      V2247   1.922       .  S
O2239      C2249   1.265       .  A
O2240      C2250   1.271       .  A
O2241      C2251   1.265       .  A
O2242      C2252   1.271       .  A
O2243      V2248   1.922       .  S
O2243      C2252   1.265       .  A
O2244      C2251   1.271       .  A
O2245      C2250   1.265       .  A
O2246      C2249   1.271       .  A
N2253      H2285   1.041       .  S
N2253      C2258   1.340       .  A
N2254      C2261   1.357       .  A
N2254      C2262   1.356       .  A
N2255      H2286   1.044       .  S
N2255      C2260   1.362       .  A
N2256      C2263   1.357       .  A
N2256      C2264   1.356       .  A
C2257      C2265   1.382       .  A
C2257      C2273   1.383       .  A
C2258      C2274   1.383       .  A
C2258      C2266   1.382       .  A
C2259      C2267   1.385       .  A
C2259      C2276   1.428       .  A
C2260      C2275   1.428       .  A
C2260      C2268   1.385       .  A
C2261      C2273   1.410       .  A
C2261      C2269   1.372       .  A
C2262      C2276   1.433       .  A
C2262      C2270   1.393       .  A
C2263      C2271   1.372       .  A
C2263      C2274   1.410       .  A
C2264      C2272   1.393       .  A
C2264      C2275   1.433       .  A
C2265      H2277   1.075       .  S
C2266      H2278   1.075       .  S
C2267      H2279   1.083       .  S
C2268      H2280   1.083       .  S
C2269      C2270   1.369       .  A
C2269      H2281   1.083       .  S
C2270      H2282   1.071       .  S
C2271      C2272   1.369       .  A
C2271      H2283   1.083       .  S
C2272      H2284   1.071       .  S
C2275      C2350   1.548       .  S
C2276      C2359   1.548       .  S
N2287      H2319   1.040       .  S
N2287      C2292   1.340       .  A
N2287      C2291   1.340       .  A
N2288      C2295   1.357       .  A
N2288      C2296   1.356       .  A
N2289      H2320   1.044       .  S
N2289      C2294   1.362       .  A
N2289      C2293   1.362       .  A
N2290      C2297   1.357       .  A
N2290      C2298   1.356       .  A
C2291      C2299   1.382       .  A
C2291      C2307   1.383       .  A
C2292      C2308   1.383       .  A
C2292      C2300   1.382       .  A
C2293      C2301   1.385       .  A
C2293      C2310   1.428       .  A
C2294      C2309   1.428       .  A
C2294      C2302   1.385       .  A
C2295      C2307   1.410       .  A
C2295      C2303   1.372       .  A
C2296      C2310   1.433       .  A
C2296      C2304   1.393       .  A
C2297      C2305   1.372       .  A
C2297      C2308   1.410       .  A
C2298      C2306   1.393       .  A
C2298      C2309   1.433       .  A
C2299      C2300   1.363       .  A
C2299      H2311   1.075       .  S
C2300      H2312   1.075       .  S
C2301      C2302   1.375       .  A
C2301      H2313   1.083       .  S
C2302      H2314   1.083       .  S
C2303      C2304   1.368       .  A
C2303      H2315   1.083       .  S
C2304      H2316   1.071       .  S
C2305      C2306   1.368       .  A
C2305      H2317   1.083       .  S
C2306      H2318   1.071       .  S
C2307      C2326   1.484       .  S
C2308      C2335   1.484       .  S
C2321      C2322   1.535       .  S
C2321      C2327   1.506       .  S
C2321      C2325   1.522       .  S
C2321      C2428   1.455       .  S
C2322      H2329   1.082       .  S
C2322      C2323   1.387       .  D
C2323      C2324   1.568       .  S
C2324      C2328   1.564       .  S
C2324      C2326   1.549       .  S
C2324      H2330   1.091       .  S
C2325      H2331   1.088       .  S
C2325      C2326   1.363       .  D
C2327      H2332   1.088       .  S
C2327      C2328   1.349       .  D
C2328      C2382   1.500       .  S
C2333      C2334   1.522       .  S
C2333      C2339   1.506       .  S
C2333      C2337   1.535       .  S
C2333      C2417   1.455       .  S
C2334      H2341   1.088       .  S
C2334      C2335   1.363       .  D
C2335      C2336   1.549       .  S
C2336      C2340   1.564       .  S
C2336      C2338   1.568       .  S
C2336      H2342   1.091       .  S
C2337      H2343   1.082       .  S
C2337      C2338   1.387       .  D
C2339      H2344   1.088       .  S
C2339      C2340   1.349       .  D
C2340      C2380   1.500       .  S
C2345      C2346   1.522       .  S
C2345      C2351   1.506       .  S
C2345      C2349   1.535       .  S
C2345      C2421   1.455       .  S
C2346      H2353   1.088       .  S
C2346      C2347   1.363       .  D
C2347      C2403   1.484       .  S
C2347      C2348   1.549       .  S
C2348      C2352   1.564       .  S
C2348      C2350   1.568       .  S
C2348      H2354   1.091       .  S
C2349      H2355   1.082       .  S
C2349      C2350   1.387       .  D
C2351      H2356   1.088       .  S
C2351      C2352   1.349       .  D
C2352      C2381   1.500       .  S
C2357      C2358   1.535       .  S
C2357      C2363   1.506       .  S
C2357      C2361   1.522       .  S
C2357      C2432   1.455       .  S
C2358      H2365   1.082       .  S
C2358      C2359   1.387       .  D
C2359      C2360   1.568       .  S
C2360      C2364   1.564       .  S
C2360      C2362   1.549       .  S
C2360      H2366   1.091       .  S
C2361      H2367   1.088       .  S
C2361      C2362   1.363       .  D
C2362      C2404   1.484       .  S
C2363      H2368   1.088       .  S
C2363      C2364   1.349       .  D
C2364      C2379   1.500       .  S
O2369      V2377   1.922       .  S
O2369      C2379   1.265       .  A
O2370      C2380   1.271       .  A
O2371      V2377   1.922       .  S
O2371      C2381   1.265       .  A
O2372      C2382   1.271       .  A
O2373      V2378   1.922       .  S
O2373      C2382   1.265       .  A
O2374      C2381   1.271       .  A
O2375      V2378   1.922       .  S
O2375      C2380   1.265       .  A
O2376      C2379   1.271       .  A
N2383      H2415   1.040       .  S
N2383      C2388   1.340       .  A
N2383      C2387   1.340       .  A
N2384      C2391   1.357       .  A
N2384      C2392   1.356       .  A
N2385      H2416   1.044       .  S
N2385      C2390   1.362       .  A
N2385      C2389   1.362       .  A
N2386      C2393   1.357       .  A
N2386      C2394   1.356       .  A
C2387      C2395   1.382       .  A
C2387      C2403   1.383       .  A
C2388      C2404   1.383       .  A
C2388      C2396   1.382       .  A
C2389      C2397   1.385       .  A
C2389      C2406   1.428       .  A
C2390      C2405   1.428       .  A
C2390      C2398   1.385       .  A
C2391      C2403   1.410       .  A
C2391      C2399   1.372       .  A
C2392      C2406   1.433       .  A
C2392      C2400   1.393       .  A
C2393      C2401   1.372       .  A
C2393      C2404   1.410       .  A
C2394      C2402   1.393       .  A
C2394      C2405   1.433       .  A
C2395      C2396   1.363       .  A
C2395      H2407   1.075       .  S
C2396      H2408   1.075       .  S
C2397      C2398   1.375       .  A
C2397      H2409   1.083       .  S
C2398      H2410   1.083       .  S
C2399      C2400   1.368       .  A
C2399      H2411   1.083       .  S
C2400      H2412   1.071       .  S
C2401      C2402   1.368       .  A
C2401      H2413   1.083       .  S
C2402      H2414   1.071       .  S
C2417      C2418   1.201       .  T
C2419      C2420   1.201       .  T
C2421      C2422   1.201       .  T
C2423      C2424   1.201       .  T
C2425      C2426   1.201       .  T
C2427      C2428   1.201       .  T
C2429      C2430   1.201       .  T
C2431      C2432   1.201       .  T
