geometry optimzed in LAMMPS
_audit_creation_date              2020-12-01 
_audit_creation_method            'lammps2cif' 
_symmetry_space_group_name_H-M    'P1' 
_symmetry_Int_Tables_number       1 
_symmetry_cell_setting            triclinic 
loop_ 
_symmetry_equiv_pos_as_xyz 
  x,y,z 
_cell_length_a                    35.96462712 
_cell_length_b                    36.03013249921474 
_cell_length_c                    36.15211897257679 
_cell_angle_alpha                 90.21761553176721 
_cell_angle_beta                  90.15997481657698 
_cell_angle_gamma                 90.1263080167744 
loop_ 
_atom_site_label 
_atom_site_type_symbol 
_atom_site_fract_x 
_atom_site_fract_y 
_atom_site_fract_z 
_atom_site_charge 
C1          C  0.15560518  0.86850585  0.53541887     0.01800
C2          C  0.12683555  0.84131438  0.53244236     0.01800
C3          C  0.11184557  0.83166701  0.49731932     0.01800
C4          C  0.13382401  0.84035228  0.46596294     0.01800
C5          C  0.16275957  0.86760233  0.46890666     0.01800
C6          C  0.16898162  0.88603074  0.50320595     0.01800
C7          C  0.11459105  0.09050131  0.53027384     0.01800
C8          C  0.14696916  0.06738536  0.53262414     0.01800
C9          C  0.15971409  0.04905945  0.50017855     0.01800
C10         C  0.15418971  0.06768646  0.46590022     0.01800
C11         C  0.12240102  0.09204159  0.46302968     0.01800
C12         C  0.09842499  0.09710039  0.49431879     0.01800
C13         C  0.91105354  0.10520338  0.46281598     0.01800
C14         C  0.93507021  0.11254412  0.49313552     0.01800
C15         C  0.92009547  0.10663872  0.52832295     0.01800
C16         C  0.88805861  0.08638424  0.53529450     0.01800
C17         C  0.87283925  0.06555850  0.50439472     0.01800
C18         C  0.87924076  0.08109275  0.46790839     0.01800
C19         C  0.92685719  0.85393332  0.46394307     0.01800
C20         C  0.94876946  0.84548174  0.49563502     0.01800
C21         C  0.93256650  0.85402461  0.53082921     0.01800
C22         C  0.90315669  0.88091222  0.53259410     0.01800
C23         C  0.89480132  0.90204253  0.50061878     0.01800
C24         C  0.89994646  0.88335188  0.46657255     0.01800
C25         C  0.55712116  0.08611464  0.12455978     0.01800
C26         C  0.55299914  0.10903409  0.09253773     0.01800
C27         C  0.51657535  0.11632561  0.07834173     0.01800
C28         C  0.48592701  0.10952163  0.10228793     0.01800
C29         C  0.49082157  0.08424597  0.13257196     0.01800
C30         C  0.52591907  0.06774463  0.13921272     0.01800
C31         C  0.48853240  0.11507016  0.89788941     0.01800
C32         C  0.52204021  0.12556468  0.91642205     0.01800
C33         C  0.55621692  0.11401447  0.89936199     0.01800
C34         C  0.55495301  0.07978292  0.87770674     0.01800
C35         C  0.52057892  0.06101094  0.87107603     0.01800
C36         C  0.48811124  0.08264817  0.87482305     0.01800
C37         C  0.55485016  0.85571688  0.09684810     0.01800
C38         C  0.55756685  0.88470453  0.12387559     0.01800
C39         C  0.52500093  0.90391353  0.13434876     0.01800
C40         C  0.49044194  0.88401641  0.13132737     0.01800
C41         C  0.48693281  0.85618971  0.10232976     0.01800
C42         C  0.51915871  0.84830084  0.08025785     0.01800
C43         C  0.48812973  0.87371349  0.87129179     0.01800
C44         C  0.52033843  0.89556347  0.86504303     0.01800
C45         C  0.55488639  0.87894178  0.87442491     0.01800
C46         C  0.55614232  0.84898230  0.90031224     0.01800
C47         C  0.52268933  0.83669613  0.91709019     0.01800
C48         C  0.48896670  0.84368383  0.89724478     0.01800
C49         C  0.12671190  0.43925408  0.86564358     0.01800
C50         C  0.11002571  0.47301050  0.85405013     0.01800
C51         C  0.13185993  0.50595157  0.85971164     0.01800
C52         C  0.15564714  0.50674783  0.89222878     0.01800
C53         C  0.16146236  0.47372943  0.91324312     0.01800
C54         C  0.15365833  0.43981763  0.89466390     0.01800
C55         C  0.13952522  0.51145804  0.09920291     0.01800
C56         C  0.14731709  0.47865397  0.07781644     0.01800
C57         C  0.13921258  0.44352751  0.09555187     0.01800
C58         C  0.11213758  0.44247567  0.12514309     0.01800
C59         C  0.09118262  0.47531097  0.13188577     0.01800
C60         C  0.11017068  0.50944084  0.12636787     0.01800
C61         C  0.90708870  0.51012018  0.12661570     0.01800
C62         C  0.92620111  0.47738314  0.13739537     0.01800
C63         C  0.90821727  0.44306393  0.13004144     0.01800
C64         C  0.88111086  0.44141066  0.10088759     0.01800
C65         C  0.87147274  0.47397362  0.08112384     0.01800
C66         C  0.87794151  0.50835043  0.09948875     0.01800
C67         C  0.92089179  0.50877981  0.86725944     0.01800
C68         C  0.94373827  0.47622505  0.86396427     0.01800
C69         C  0.92541439  0.44225775  0.87266578     0.01800
C70         C  0.89594470  0.44199528  0.89917847     0.01800
C71         C  0.88754008  0.47563141  0.91795543     0.01800
C72         C  0.89511874  0.50936615  0.89846817     0.01800
O73         O  0.23216434  0.89491354  0.70172053    -0.75800
O74         O  0.18307961  0.93382102  0.69417213    -0.54700
C75         C  0.20321575  0.90637039  0.68386697     0.77900
O76         O  0.20975379  0.92999463  0.89670532    -0.60400
O77         O  0.27191776  0.93100487  0.89585519    -0.53400
C78         C  0.24115219  0.91752453  0.90771809     0.69900
O79         O  0.12399569  0.92535965  0.80829402    -0.75000
O80         O  0.12678275  0.93087017  0.74639494    -0.55500
C81         C  0.11354910  0.91575974  0.77588397     0.75900
O82         O  0.32490860  0.90115358  0.79074550    -0.60100
O83         O  0.32967363  0.93945962  0.84052271    -0.53200
C84         C  0.34177094  0.91351586  0.82013548     0.72500
Zr85       Zr  0.26562253  0.91676928  0.75778193     2.54700
O86         O  0.26514496  0.84926070  0.76131093    -0.80700
O87         O  0.31259624  0.91667353  0.70933981    -0.94100
Zr88       Zr  0.18598839  0.92700502  0.83390204     2.64700
O89         O  0.19380963  0.86006841  0.83151705    -0.99000
O90         O  0.13692871  0.91021101  0.87670992    -0.81100
O91         O  0.20040950  0.92151147  0.77032891    -0.84500
O92         O  0.25028045  0.92002141  0.82171738    -2.19200
O93         O  0.33119403  0.04359045  0.78567047    -0.67900
O94         O  0.33268404  0.01000451  0.83903934    -0.52400
C95         C  0.34629014  0.03384555  0.81679617     0.70900
O96         O  0.13945366  0.05264299  0.79637539    -0.60800
O97         O  0.12412909  0.01995341  0.74461590    -0.52700
C98         C  0.11770648  0.04514413  0.76918336     0.72700
O99         O  0.21453528  0.02390980  0.89177806    -0.72200
O100        O  0.27567893  0.01966207  0.89745091    -0.50800
C101        C  0.24491335  0.03438777  0.90709545     0.74100
O102        O  0.24326938  0.04309676  0.69129620    -0.67500
O103        O  0.18654938  0.01420894  0.68846344    -0.54700
C104        C  0.21239088  0.03462627  0.67469966     0.72500
Zr105      Zr  0.27325974  0.02671933  0.75136434     2.77500
O106        O  0.28063069  0.09342486  0.74361850    -0.98200
O107        O  0.32229309  0.01166475  0.70743222    -0.79100
Zr108      Zr  0.19596973  0.03647926  0.82822452     2.70100
O109        O  0.21997768  0.09973734  0.82968687    -0.80300
O110        O  0.14935732  0.06271338  0.86793787    -0.99400
Zr111      Zr  0.17766000  0.97750081  0.74333859     2.21500
Zr112      Zr  0.27676483  0.97607500  0.84548908     2.11100
O113        O  0.25967248  0.03263784  0.81576264    -2.48100
O114        O  0.20847593  0.03266000  0.76414194    -0.80100
O115        O  0.29315357  0.97173864  0.78147009    -0.72300
O116        O  0.16416052  0.98308243  0.80718587    -2.33200
O117        O  0.24294529  0.97205013  0.72949887    -2.29500
O118        O  0.21290856  0.98135408  0.85862109    -0.74000
H119        H  0.26027953  0.89856110  0.83415271     0.77900
H120        H  0.13808716  0.98695205  0.81202559     0.79000
H121        H  0.27258983  0.05349612  0.82669848     0.81300
H122        H  0.24674400  0.97011304  0.70314627     0.78900
H123        H  0.12760624  0.93423145  0.88627228     0.41900
H124        H  0.14483508  0.04343145  0.88684449     0.40900
H125        H  0.21932656  0.10784126  0.80355751     0.40600
H126        H  0.29157879  0.09626591  0.71868159     0.38500
H127        H  0.31301416  0.02042361  0.68319162     0.41600
H128        H  0.29980089  0.92635271  0.68710425     0.36400
H129        H  0.27986997  0.84323866  0.78366412     0.42500
H130        H  0.20639344  0.85510160  0.80771133     0.38900
H131        H  0.25495291  0.10295053  0.74107603     0.43900
H132        H  0.31672061  0.89006137  0.70382029     0.42600
H133        H  0.21271315  0.85437535  0.85059310     0.42700
H134        H  0.16263507  0.08277345  0.88106818     0.43100
O135        O  0.08363986  0.18063654  0.69018426    -0.75800
O136        O  0.04424099  0.13095594  0.68740397    -0.54700
C137        C  0.06967562  0.15158759  0.67361500     0.77900
O138        O  0.09324983  0.16417574  0.88828750    -0.60400
O139        O  0.06646306  0.22049304  0.89862214    -0.53400
C140        C  0.08758597  0.19335178  0.90800433     0.69900
O141        O  0.07424674  0.07620831  0.80367494    -0.75000
O142        O  0.06525424  0.07908053  0.74262039    -0.55500
C143        C  0.08323048  0.06702682  0.77091480     0.75900
O144        O  0.08579737  0.27857527  0.77865699    -0.60100
O145        O  0.07350116  0.27433409  0.84013829    -0.53200
C146        C  0.08500654  0.29232343  0.81201211     0.72500
Zr147      Zr  0.07384801  0.21571788  0.74988493     2.54700
O148        O  0.14144622  0.21358311  0.75131268    -0.80700
O149        O  0.07687230  0.26178410  0.70080940    -0.94100
Zr150      Zr  0.07612188  0.13800250  0.82880341     2.64700
O151        O  0.14055037  0.13772057  0.80877040    -0.99000
O152        O  0.08588269  0.09418959  0.87849931    -0.81100
O153        O  0.07367456  0.15124443  0.76489359    -0.84500
O154        O  0.07982939  0.20185115  0.81437513    -2.19200
O155        O  0.95193899  0.27866885  0.79325486    -0.67900
O156        O  0.99843069  0.28556144  0.83548415    -0.52400
C157        C  0.96925366  0.29692344  0.81931124     0.70900
O158        O  0.94504061  0.08881419  0.80661756    -0.60800
O159        O  0.97574328  0.07209751  0.75407281    -0.52700
C160        C  0.95105638  0.06696506  0.77919716     0.72700
O161        O  0.98473360  0.16744384  0.89711114    -0.72200
O162        O  0.98334757  0.22853403  0.89704547    -0.50800
C163        C  0.97131412  0.19752547  0.90964455     0.74100
O164        O  0.94198154  0.18279665  0.70208681    -0.67500
O165        O  0.96249227  0.12330069  0.70739971    -0.54700
C166        C  0.94419010  0.14844893  0.69087541     0.72500
Zr167      Zr  0.96327780  0.21941323  0.75793098     2.77500
O168        O  0.89558246  0.21985501  0.75982074    -0.98200
O169        O  0.96425485  0.26712443  0.71046731    -0.79100
Zr170      Zr  0.96654375  0.14422181  0.83711237     2.70100
O171        O  0.90453407  0.17090586  0.83929069    -0.80300
O172        O  0.95162634  0.09510173  0.88069006    -0.99400
Zr173      Zr  0.01538081  0.12626598  0.74629253     2.21500
Zr174      Zr  0.02704979  0.22776097  0.84435659     2.11100
O175        O  0.96730966  0.20803638  0.82281786    -2.48100
O176        O  0.96272330  0.15544064  0.77319677    -0.80100
O177        O  0.02154662  0.24207255  0.77976167    -0.72300
O178        O  0.01764669  0.11387860  0.81025275    -2.33200
O179        O  0.01567836  0.19103508  0.72930543    -2.29500
O180        O  0.02492382  0.16447437  0.85867285    -0.74000
H181        H  0.10271918  0.21204368  0.82413080     0.77900
H182        H  0.01431238  0.08795885  0.81605070     0.79000
H183        H  0.94810874  0.22149557  0.83574034     0.81300
H184        H  0.01334918  0.19415003  0.70288251     0.78900
H185        H  0.06112959  0.08286467  0.88256804     0.41900
H186        H  0.96978636  0.07523523  0.87513589     0.40900
H187        H  0.89363139  0.16521097  0.81474389     0.40600
H188        H  0.88927407  0.23479029  0.78196062     0.38500
H189        H  0.98982824  0.27731669  0.71154178     0.41600
H190        H  0.06063406  0.25194641  0.68088942     0.36400
H191        H  0.14774070  0.18962970  0.73939579     0.42500
H192        H  0.15081434  0.16203243  0.81655623     0.38900
H193        H  0.88814391  0.23554296  0.73863384     0.43900
H194        H  0.10242144  0.25967219  0.69089954     0.42600
H195        H  0.15260501  0.11941682  0.82500172     0.42700
H196        H  0.95922956  0.10420826  0.90540360     0.43100
O197        O  0.09627790  0.76592192  0.30284433    -0.75800
O198        O  0.05803281  0.81591694  0.30802408    -0.54700
C199        C  0.08431986  0.79524302  0.31979124     0.77900
O200        O  0.06591226  0.78124542  0.10459620    -0.60400
O201        O  0.06601716  0.71932977  0.10382951    -0.53400
C202        C  0.07833906  0.75040165  0.09193377     0.69900
O203        O  0.07739939  0.86999003  0.19012321    -0.75000
O204        O  0.06846092  0.87030723  0.25177623    -0.55500
C205        C  0.08501918  0.88224247  0.22265947     0.75900
O206        O  0.08861477  0.66712153  0.22379155    -0.60100
O207        O  0.06321786  0.66416488  0.16595669    -0.53200
C208        C  0.08064501  0.64978452  0.19349858     0.72500
Zr209      Zr  0.07888032  0.73126103  0.24596601     2.54700
O210        O  0.14621517  0.73203117  0.23873642    -0.80700
O211        O  0.08249834  0.68766926  0.29721534    -0.94100
Zr212      Zr  0.07484910  0.80675849  0.16667779     2.64700
O213        O  0.13916661  0.79377671  0.18247502    -0.99000
O214        O  0.10352092  0.84487815  0.11960416    -0.81100
O215        O  0.07741442  0.79563785  0.23085029    -0.84500
O216        O  0.07901750  0.74267020  0.18085823    -2.19200
O217        O  0.94994570  0.66842975  0.21362244    -0.67900
O218        O  0.98651916  0.66264795  0.16253249    -0.52400
C219        C  0.96091974  0.65103311  0.18403027     0.70900
O220        O  0.94700290  0.85950455  0.19849685    -0.60800
O221        O  0.97982719  0.87554758  0.24986097    -0.52700
C222        C  0.95434513  0.88171573  0.22549306     0.72700
O223        O  0.97791372  0.77999305  0.10603120    -0.72200
O224        O  0.97818585  0.71846252  0.10415042    -0.50800
C225        C  0.96518576  0.74962703  0.09281489     0.74100
O226        O  0.95096509  0.75980174  0.30539152    -0.67500
O227        O  0.98373107  0.81407605  0.30688896    -0.54700
C228        C  0.96024148  0.79126128  0.32036051     0.72500
Zr229      Zr  0.96805200  0.72690367  0.24698241     2.77500
O230        O  0.90043168  0.72715268  0.24959244    -0.98200
O231        O  0.97528959  0.67892080  0.29370165    -0.79100
Zr232      Zr  0.96471900  0.80215446  0.16793483     2.70100
O233        O  0.90078522  0.78055260  0.16246664    -0.80300
O234        O  0.94360947  0.85073592  0.12713404    -0.99400
Zr235      Zr  0.02095704  0.82087393  0.25371366     2.21500
Zr236      Zr  0.02325179  0.71647580  0.15586767     2.11100
O237        O  0.96615595  0.73837741  0.18221042    -2.48100
O238        O  0.96530656  0.79145602  0.23224532    -0.80100
O239        O  0.02405554  0.70398598  0.22087690    -0.72300
O240        O  0.01859831  0.83275020  0.18953245    -2.33200
O241        O  0.02286903  0.75613922  0.27005819    -2.29500
O242        O  0.02051458  0.78038605  0.14152302    -0.74000
H243        H  0.10046733  0.73140754  0.16941892     0.77900
H244        H  0.01548456  0.85870767  0.18379325     0.79000
H245        H  0.94509563  0.72600811  0.17098634     0.81300
H246        H  0.02333452  0.75301557  0.29656253     0.78900
H247        H  0.08265372  0.85940237  0.10916266     0.41900
H248        H  0.96164553  0.85095711  0.10650101     0.40900
H249        H  0.89173948  0.77918980  0.18825858     0.40600
H250        H  0.89435641  0.71208915  0.27162328     0.38500
H251        H  0.95397236  0.68249113  0.31060616     0.41600
H252        H  0.06601778  0.69804943  0.31653464     0.36400
H253        H  0.15101521  0.71674561  0.21644404     0.42500
H254        H  0.14818469  0.77676952  0.16296088     0.38900
H255        H  0.89386179  0.75286709  0.25675732     0.43900
H256        H  0.10796103  0.69070632  0.30728684     0.42600
H257        H  0.15222385  0.81759294  0.17856327     0.42700
H258        H  0.92047927  0.84039601  0.11646915     0.43100
O259        O  0.21215748  0.86791174  0.06879650    -0.75800
O260        O  0.26822688  0.87674316  0.04124825    -0.54700
C261        C  0.24250103  0.88588783  0.06447862     0.77900
O262        O  0.23374062  0.67428138  0.07548605    -0.60400
O263        O  0.18084206  0.66742569  0.04102847    -0.53400
C264        C  0.20385361  0.65625820  0.06554776     0.69900
O265        O  0.32226422  0.77059938  0.07308067    -0.75000
O266        O  0.32446528  0.82344991  0.03839188    -0.55500
C267        C  0.33790152  0.80147031  0.06279549     0.75900
O268        O  0.12666693  0.78406659  0.06820679    -0.60100
O269        O  0.12037554  0.72550074  0.04545986    -0.53200
C270        C  0.10988058  0.75291413  0.06610351     0.72500
Zr271      Zr  0.18331445  0.81164901  0.04834785     2.54700
O272        O  0.18009868  0.81188338  0.11464377    -0.80700
O273        O  0.13510314  0.85850414  0.04100254    -0.94100
Zr274      Zr  0.26389486  0.73520591  0.05791307     2.64700
O275        O  0.26330766  0.73921671  0.12513750    -0.99000
O276        O  0.31551085  0.69148887  0.05641513    -0.81100
O277        O  0.24756826  0.79945618  0.05334187    -0.84500
O278        O  0.19876219  0.74827131  0.05619354    -2.19200
O279        O  0.12452387  0.77809068  0.95278841    -0.67900
O280        O  0.12286360  0.71692607  0.95715421    -0.52400
C281        C  0.11240912  0.74667829  0.94117362     0.70900
O282        O  0.32770025  0.75832405  0.93512022    -0.60800
O283        O  0.32263523  0.81789263  0.95540340    -0.52700
C284        C  0.34092102  0.79154969  0.94031157     0.72700
O285        O  0.23307868  0.66830851  0.93409273    -0.72200
O286        O  0.17900369  0.66477305  0.96703972    -0.50800
C287        C  0.20223343  0.65204117  0.94361410     0.74100
O288        O  0.21126084  0.86349496  0.92533577    -0.67500
O289        O  0.26648143  0.87597904  0.95387041    -0.54700
C290        C  0.24003757  0.88393063  0.93100794     0.72500
Zr291      Zr  0.18635796  0.80282424  0.94035843     2.77500
O292        O  0.19216651  0.78152854  0.87672966    -0.98200
O293        O  0.14195970  0.84153655  0.90833513    -0.79100
Zr294      Zr  0.26657599  0.72764219  0.94876006     2.70100
O295        O  0.27123699  0.72320510  0.88171912    -0.80300
O296        O  0.31324549  0.67982096  0.95903067    -0.99400
Zr297      Zr  0.27183291  0.82377974  0.99740831     2.21500
Zr298      Zr  0.17349174  0.71985539  0.00234597     2.11100
O299        O  0.20138459  0.73932449  0.94536800    -2.48100
O300        O  0.25116331  0.79192463  0.94297892    -0.80100
O301        O  0.15762170  0.78313913  0.99573847    -0.72300
O302        O  0.28892878  0.75932045  0.00223183    -2.33200
O303        O  0.20754639  0.83600357  0.99323564    -2.29500
O304        O  0.23886188  0.70604596  0.00439664    -0.74000
H305        H  0.18716750  0.73854499  0.07820004     0.77900
H306        H  0.31560538  0.75669152  0.00337542     0.79000
H307        H  0.19058065  0.72571357  0.92496216     0.81300
H308        H  0.20228755  0.86224816  0.99230765     0.78900
H309        H  0.30401643  0.66658152  0.05820763     0.41900
H310        H  0.29920271  0.65817566  0.96844719     0.40900
H311        H  0.28825510  0.70210361  0.87728300     0.40600
H312        H  0.21745915  0.77101450  0.87486233     0.38500
H313        H  0.12784096  0.85355354  0.92856606     0.41600
H314        H  0.11556522  0.84618124  0.02597687     0.36400
H315        H  0.20128229  0.79616121  0.12226895     0.42500
H316        H  0.23664440  0.73930147  0.13182290     0.38900
H317        H  0.17518729  0.75998619  0.87432727     0.43900
H318        H  0.14583608  0.87736851  0.02429047     0.42600
H319        H  0.27239104  0.71469571  0.13345132     0.42700
H320        H  0.32126493  0.67230946  0.93392500     0.43100
O321        O  0.07964835  0.07980726  0.19260177    -0.75800
O322        O  0.07013373  0.08140906  0.25412999    -0.54700
C323        C  0.08672172  0.06860351  0.22533798     0.77900
O324        O  0.09623386  0.28190824  0.22108472    -0.60400
O325        O  0.06483896  0.28822240  0.16630631    -0.53400
C326        C  0.08624240  0.30058026  0.19217333     0.69900
O327        O  0.09749262  0.18587735  0.30502933    -0.75000
O328        O  0.06111286  0.13400246  0.30939834    -0.55500
C329        C  0.08646168  0.15583092  0.32142192     0.75900
O330        O  0.09397601  0.17008869  0.11079606    -0.60100
O331        O  0.06883736  0.22749505  0.10236739    -0.53200
C332        C  0.08980444  0.20015820  0.09253986     0.72500
Zr333      Zr  0.07491498  0.14124212  0.16728105     2.54700
O334        O  0.14151639  0.13193840  0.17127200    -0.80700
O335        O  0.06798341  0.09924113  0.11470414    -0.94100
Zr336      Zr  0.08322224  0.21887918  0.24587798     2.64700
O337        O  0.14905215  0.20880976  0.23389686    -0.99000
O338        O  0.09829005  0.26269593  0.29517709    -0.81100
O339        O  0.08039855  0.15451293  0.23114655    -0.84500
O340        O  0.08163597  0.20556346  0.18109399    -2.19200
O341        O  0.97699491  0.16902515  0.10664419    -0.67900
O342        O  0.98146598  0.23058189  0.10408102    -0.52400
C343        C  0.96639620  0.19994936  0.09323583     0.70900
O344        O  0.95183538  0.19012659  0.30357930    -0.60800
O345        O  0.98345989  0.13529079  0.30681959    -0.52700
C346        C  0.95931133  0.15818029  0.31883349     0.72700
O347        O  0.95680288  0.28585050  0.21412194    -0.72200
O348        O  0.98620625  0.28481549  0.15862741    -0.50800
C349        C  0.96497932  0.30030425  0.18215589     0.74100
O350        O  0.93901038  0.11613661  0.22069881    -0.67500
O351        O  0.98076260  0.07964582  0.24811726    -0.54700
C352        C  0.94898295  0.08448348  0.23280120     0.72500
Zr353      Zr  0.96626610  0.14914513  0.16960280     2.77500
O354        O  0.90162096  0.16389273  0.15850102    -0.98200
O355        O  0.95512439  0.09046292  0.13840526    -0.79100
Zr356      Zr  0.97214597  0.22634935  0.24733539     2.70100
O357        O  0.90445282  0.22648193  0.24683319    -0.80300
O358        O  0.97694137  0.27455659  0.29449949    -0.99400
Zr359      Zr  0.02375152  0.13162627  0.25552703     2.21500
Zr360      Zr  0.02710349  0.23350328  0.15568737     2.11100
O361        O  0.96970747  0.21328800  0.18253473    -2.48100
O362        O  0.96976517  0.16233869  0.23324254    -0.80100
O363        O  0.02205486  0.16972950  0.14245310    -0.72300
O364        O  0.02647152  0.19672446  0.27137497    -2.33200
O365        O  0.01896090  0.11732301  0.19167847    -2.29500
O366        O  0.02895354  0.24730559  0.22080231    -0.74000
H367        H  0.10373357  0.21549388  0.16961766     0.77900
H368        H  0.02680206  0.20012528  0.29788371     0.79000
H369        H  0.94865386  0.22549962  0.17134638     0.81300
H370        H  0.01552535  0.09114389  0.18690954     0.78900
H371        H  0.12469972  0.25774972  0.30118000     0.41900
H372        H  0.95086271  0.27981501  0.30145774     0.40900
H373        H  0.89756337  0.22709416  0.22030951     0.40600
H374        H  0.90176024  0.18691701  0.14369248     0.38500
H375        H  0.97396191  0.08961986  0.11850347     0.41600
H376        H  0.04502513  0.10761870  0.10210263     0.36400
H377        H  0.14633645  0.12671401  0.19771405     0.42500
H378        H  0.15956202  0.23402159  0.23079786     0.38900
H379        H  0.89396984  0.14413079  0.14114700     0.43900
H380        H  0.06124071  0.07481504  0.12518556     0.42600
H381        H  0.15930219  0.20010714  0.25777836     0.42700
H382        H  0.98761322  0.26191516  0.31634085     0.43100
O383        O  0.13831020  0.90206032  0.19573253    -0.75800
O384        O  0.12430707  0.93207755  0.24936391    -0.54700
C385        C  0.11748142  0.90769953  0.22366893     0.77900
O386        O  0.33051695  0.90509375  0.22339107    -0.60400
O387        O  0.33824714  0.93734986  0.16944180    -0.53400
C388        C  0.34997398  0.91578121  0.19543277     0.69900
O389        O  0.23601244  0.90581091  0.30682005    -0.75000
O390        O  0.17919152  0.93320003  0.30544340    -0.55500
C391        C  0.20415093  0.91392469  0.32147442     0.75900
O392        O  0.21559550  0.93008829  0.10359004    -0.60100
O393        O  0.27747970  0.92935993  0.10243095    -0.53200
C394        C  0.24604300  0.91755160  0.09039569     0.72500
Zr395      Zr  0.19388696  0.92140784  0.16655022     2.54700
O396        O  0.21203936  0.85686547  0.16175821    -0.80700
O397        O  0.14081036  0.90988880  0.12639671    -0.94100
Zr398      Zr  0.26799479  0.91905379  0.24716184     2.64700
O399        O  0.26687514  0.85147721  0.24580828    -0.99000
O400        O  0.31103446  0.92385462  0.29909507    -0.81100
O401        O  0.20381162  0.92032544  0.23138278    -0.84500
O402        O  0.25757596  0.91758817  0.18164394    -2.19200
O403        O  0.21583601  0.01977835  0.10475173    -0.67900
O404        O  0.27759468  0.01813963  0.10289731    -0.52400
C405        C  0.24645627  0.03214446  0.09207309     0.70900
O406        O  0.24549746  0.04563018  0.30533633    -0.60800
O407        O  0.19076782  0.01345579  0.31143981    -0.52700
C408        C  0.21649404  0.03550885  0.32376554     0.72700
O409        O  0.33348486  0.04021686  0.21343571    -0.72200
O410        O  0.33178377  0.01513042  0.15563301    -0.50800
C411        C  0.34791411  0.03323052  0.18122660     0.74100
O412        O  0.13981823  0.04749080  0.19868052    -0.67500
O413        O  0.12523672  0.01984379  0.25291563    -0.54700
C414        C  0.11876354  0.04314578  0.22672733     0.72500
Zr415      Zr  0.19551087  0.03012703  0.16752262     2.77500
O416        O  0.21111259  0.09576354  0.16292170    -0.98200
O417        O  0.14378859  0.04482811  0.12706981    -0.79100
Zr418      Zr  0.27262488  0.02880458  0.24494626     2.70100
O419        O  0.27136153  0.09628390  0.24265264    -0.80300
O420        O  0.32063582  0.02613405  0.29247283    -0.99400
Zr421      Zr  0.17789711  0.97626960  0.25564677     2.21500
Zr422      Zr  0.28238980  0.97279922  0.15446821     2.11100
O423        O  0.25976232  0.02965994  0.18064279    -2.48100
O424        O  0.20737095  0.03092481  0.23188101    -0.80100
O425        O  0.21833662  0.97528264  0.14063299    -0.72300
O426        O  0.24323728  0.97515427  0.27006288    -2.33200
O427        O  0.16669804  0.97616697  0.19097342    -2.29500
O428        O  0.29521564  0.97254799  0.21969557    -0.74000
H429        H  0.26916961  0.89599860  0.17079158     0.77900
H430        H  0.24739190  0.97488304  0.29641494     0.79000
H431        H  0.27173101  0.05079493  0.16944506     0.81300
H432        H  0.14036747  0.97639578  0.18560493     0.78900
H433        H  0.32442499  0.89988252  0.29936821     0.41900
H434        H  0.33885744  0.00785677  0.28304996     0.40900
H435        H  0.28460471  0.10266282  0.21955355     0.40600
H436        H  0.21879035  0.10306994  0.18823161     0.38500
H437        H  0.13770091  0.02107159  0.11457162     0.41600
H438        H  0.15126834  0.89967991  0.10323910     0.36400
H439        H  0.21513521  0.84860844  0.18766080     0.42500
H440        H  0.28816534  0.84406289  0.26153657     0.38900
H441        H  0.23410448  0.09725894  0.14804073     0.43900
H442        H  0.13187139  0.93493868  0.11960396     0.42600
H443        H  0.24464459  0.84455289  0.26035223     0.42700
H444        H  0.33359582  0.05034742  0.29088614     0.43100
O445        O  0.32127028  0.19047704  0.07355266    -0.75800
O446        O  0.32358887  0.13624508  0.04104122    -0.54700
C447        C  0.33677362  0.15921168  0.06489188     0.77900
O448        O  0.12462810  0.17064750  0.04630928    -0.60400
O449        O  0.12192211  0.23194410  0.04370152    -0.53400
C450        C  0.11241487  0.20150864  0.05893072     0.69900
O451        O  0.21427236  0.08537536  0.07468085    -0.75000
O452        O  0.26850547  0.07433216  0.04429306    -0.55500
C453        C  0.24349805  0.06577208  0.06838436     0.75900
O454        O  0.23236242  0.28336015  0.06726292    -0.60100
O455        O  0.18064880  0.28594331  0.03100379    -0.53200
C456        C  0.20256903  0.29979461  0.05523151     0.72500
Zr457      Zr  0.26381659  0.22275668  0.05285279     2.54700
O458        O  0.26362657  0.22923995  0.11990712    -0.80700
O459        O  0.31426334  0.26711147  0.04425651    -0.94100
Zr460      Zr  0.18583669  0.14468329  0.05903078     2.64700
O461        O  0.19044361  0.16329391  0.12363798    -0.99000
O462        O  0.13886069  0.10375247  0.08382106    -0.81100
O463        O  0.25011461  0.15763739  0.05625412    -0.84500
O464        O  0.19924142  0.20903997  0.05594896    -2.19200
O465        O  0.23202732  0.27907756  0.93511643    -0.67900
O466        O  0.17162527  0.27351707  0.95116823    -0.52400
C467        C  0.19861647  0.29228907  0.93869805     0.70900
O468        O  0.21187843  0.08388504  0.92922022    -0.60800
O469        O  0.26789891  0.07456594  0.95685072    -0.52700
C470        C  0.24208662  0.06581259  0.93336188     0.72700
O471        O  0.11895953  0.16421897  0.95672909    -0.72200
O472        O  0.11970020  0.22587348  0.95628468    -0.50800
C473        C  0.10870060  0.19493362  0.94269327     0.74100
O474        O  0.32236955  0.18635772  0.93175590    -0.67500
O475        O  0.32254059  0.12991317  0.95972624    -0.54700
C476        C  0.33818660  0.15527414  0.94058697     0.72500
Zr477      Zr  0.26064445  0.21604300  0.94288949     2.77500
O478        O  0.25055421  0.20863978  0.87665518    -0.98200
O479        O  0.30924251  0.26051597  0.92774447    -0.79100
Zr480      Zr  0.18057762  0.13840852  0.95011602     2.70100
O481        O  0.17128290  0.15158483  0.88505379    -0.80300
O482        O  0.13806836  0.08565294  0.94630031    -0.99400
Zr483      Zr  0.27088272  0.12729405  0.00114684     2.21500
Zr484      Zr  0.17195139  0.22920237  0.99896684     2.11100
O485        O  0.19606957  0.20184838  0.94389696    -2.48100
O486        O  0.24511253  0.15155018  0.94574281    -0.80100
O487        O  0.23672734  0.24493992  0.99706420    -0.72300
O488        O  0.20671504  0.11358810  0.00490613    -2.33200
O489        O  0.28648045  0.19243372  0.99870410    -2.29500
O490        O  0.15700345  0.16541023  0.00424987    -0.74000
H491        H  0.18827233  0.22223506  0.07646120     0.77900
H492        H  0.20207795  0.08719780  0.00581758     0.79000
H493        H  0.18432742  0.21180038  0.92203332     0.81300
H494        H  0.31311327  0.19585087  0.99862932     0.78900
H495        H  0.12889862  0.09051120  0.06186285     0.41900
H496        H  0.14169712  0.07219722  0.96985303     0.40900
H497        H  0.19675911  0.15335468  0.87495301     0.40600
H498        H  0.25636033  0.23332942  0.86618575     0.38500
H499        H  0.31105913  0.27676143  0.94982395     0.41600
H500        H  0.30232579  0.29179322  0.04499401     0.36400
H501        H  0.28978214  0.23474903  0.12658742     0.42500
H502        H  0.21612570  0.17275323  0.12663458     0.38900
H503        H  0.27119682  0.19254244  0.86830819     0.43900
H504        H  0.32184440  0.26391007  0.01814694     0.42600
H505        H  0.17433868  0.18535754  0.12642444     0.42700
H506        H  0.11265543  0.09591767  0.94815205     0.43100
O507        O  0.90118292  0.05966448  0.19882439    -0.75800
O508        O  0.91858843  0.02782620  0.25050741    -0.54700
C509        C  0.92179438  0.05478578  0.22740294     0.77900
O510        O  0.71593575  0.04651924  0.20697562    -0.60400
O511        O  0.71040193  0.00464684  0.16006310    -0.53400
C512        C  0.69902606  0.03277397  0.17840620     0.69900
O513        O  0.79840186  0.04902483  0.30309792    -0.75000
O514        O  0.85416985  0.01937941  0.31063193    -0.55500
C515        C  0.82738288  0.04021716  0.32240062     0.75900
O516        O  0.82696805  0.01911434  0.10271077    -0.60100
O517        O  0.76551299  0.01533242  0.10207907    -0.53200
C518        C  0.79564494  0.03046379  0.09066713     0.72500
Zr519      Zr  0.85137186  0.03155226  0.16416242     2.54700
O520        O  0.83705591  0.09602532  0.15268274    -0.80700
O521        O  0.90480159  0.03034091  0.12287571    -0.94100
Zr522      Zr  0.77316650  0.03093070  0.24179796     2.64700
O523        O  0.77341717  0.09848101  0.23997025    -0.99000
O524        O  0.72224251  0.02721129  0.28588922    -0.81100
O525        O  0.83793582  0.03436600  0.22833493    -0.84500
O526        O  0.78718191  0.02944176  0.17746945    -2.19200
O527        O  0.82983896  0.90658917  0.11236137    -0.67900
O528        O  0.77322923  0.93116234  0.09914566    -0.52400
C529        C  0.80113311  0.91025550  0.09157573     0.70900
O530        O  0.81348366  0.91343834  0.30816975    -0.60800
O531        O  0.87062246  0.94026713  0.30452193    -0.52700
C532        C  0.84585277  0.92235294  0.32188346     0.72700
O533        O  0.71625379  0.91218515  0.22087615    -0.72200
O534        O  0.72356942  0.92083782  0.15926791    -0.50800
C535        C  0.70371468  0.91234214  0.18722047     0.74100
O536        O  0.92146620  0.92457780  0.19177329    -0.67500
O537        O  0.91854610  0.93341822  0.25312404    -0.54700
C538        C  0.93133796  0.91602185  0.22439810     0.72500
Zr539      Zr  0.85873290  0.92377115  0.16995432     2.77500
O540        O  0.86131670  0.85904429  0.18816124    -0.98200
O541        O  0.90172761  0.91262129  0.11948532    -0.79100
Zr542      Zr  0.78016488  0.92104726  0.24725254     2.70100
O543        O  0.78470765  0.85390933  0.24127642    -0.80300
O544        O  0.73782839  0.91303838  0.29907018    -0.99400
Zr545      Zr  0.86842241  0.98222389  0.25520183     2.21500
Zr546      Zr  0.76681422  0.97070390  0.15374936     2.11100
O547        O  0.79467534  0.91803647  0.18286797    -2.48100
O548        O  0.84487533  0.92422237  0.23365310    -0.80100
O549        O  0.83082014  0.97433111  0.14049571    -0.72300
O550        O  0.80297905  0.97883910  0.26888737    -2.33200
O551        O  0.88225691  0.98157202  0.19149561    -2.29500
O552        O  0.75134662  0.97308579  0.21837575    -0.74000
H553        H  0.77492852  0.04975626  0.16509691     0.77900
H554        H  0.79842948  0.97924969  0.29513738     0.79000
H555        H  0.78563329  0.89496824  0.17248737     0.81300
H556        H  0.90842929  0.98572850  0.18742960     0.78900
H557        H  0.72817371  0.00536383  0.30132963     0.41900
H558        H  0.72044430  0.93422545  0.29726298     0.40900
H559        H  0.79299248  0.84546324  0.26598452     0.40600
H560        H  0.83675526  0.84860719  0.18137588     0.38500
H561        H  0.90739398  0.93761394  0.10968278     0.41600
H562        H  0.90031335  0.00885581  0.10629900     0.36400
H563        H  0.83710266  0.10766284  0.17753081     0.42500
H564        H  0.80000498  0.10530617  0.23793650     0.38900
H565        H  0.87888411  0.84796859  0.17037204     0.43900
H566        H  0.92625142  0.02272272  0.13823053     0.42600
H567        H  0.76269135  0.10480746  0.21554499     0.42700
H568        H  0.72262537  0.89101044  0.29255886     0.43100
O569        O  0.82519006  0.08451957  0.07485592    -0.75800
O570        O  0.77272697  0.07165855  0.04179342    -0.54700
C571        C  0.79698866  0.06413430  0.06725299     0.77900
O572        O  0.80822036  0.27885183  0.06012365    -0.60400
O573        O  0.86477871  0.27939068  0.03196209    -0.53400
C574        C  0.83987144  0.29404440  0.05254426     0.69900
O575        O  0.71499993  0.19221222  0.05520653    -0.75000
O576        O  0.71577458  0.13374728  0.03110096    -0.55500
C577        C  0.69944725  0.16053482  0.04797083     0.75900
O578        O  0.91296594  0.16929310  0.07463896    -0.60100
O579        O  0.92613675  0.22244219  0.04362239    -0.53200
C580        C  0.93347646  0.19777644  0.06839756     0.72500
Zr581      Zr  0.85360293  0.14231857  0.05806870     2.54700
O582        O  0.83258039  0.16293428  0.11868041    -0.80700
O583        O  0.90104697  0.10033149  0.08016849    -0.94100
Zr584      Zr  0.77774919  0.21930502  0.04462945     2.64700
O585        O  0.77265426  0.22423958  0.11158591    -0.99000
O586        O  0.73120422  0.26664293  0.03217124    -0.81100
O587        O  0.78945827  0.15458908  0.05180682    -0.84500
O588        O  0.84233305  0.20605989  0.05268544    -2.19200
O589        O  0.92108062  0.16285838  0.93042018    -0.67900
O590        O  0.92832037  0.22030090  0.95600592    -0.52400
C591        C  0.93855132  0.19387881  0.93411896     0.70900
O592        O  0.72878182  0.18042695  0.91960318    -0.60800
O593        O  0.71943840  0.12845826  0.95486194    -0.52700
C594        C  0.70927010  0.15214666  0.93042327     0.72700
O595        O  0.81743209  0.27489052  0.92593295    -0.72200
O596        O  0.86942819  0.27648437  0.96101426    -0.50800
C597        C  0.84725549  0.29146119  0.93828774     0.74100
O598        O  0.83304901  0.07566096  0.93067927    -0.67500
O599        O  0.77413968  0.07078761  0.95303795    -0.54700
C600        C  0.80114719  0.05965789  0.93240647     0.72500
Zr601      Zr  0.86441653  0.13194612  0.95028935     2.77500
O602        O  0.86214904  0.12227216  0.88480721    -0.98200
O603        O  0.91234006  0.08547891  0.96072197    -0.79100
Zr604      Zr  0.78891842  0.21128802  0.93558336     2.70100
O605        O  0.80298534  0.20239850  0.87029223    -0.80300
O606        O  0.73894055  0.25347472  0.91879644    -0.99400
Zr607      Zr  0.77139814  0.12354419  0.99636689     2.21500
Zr608      Zr  0.87465212  0.22334905  0.99813088     2.11100
O609        O  0.85292383  0.19609972  0.94185984    -2.48100
O610        O  0.80090889  0.14636787  0.94201003    -0.80100
O611        O  0.88709328  0.15964768  0.00492593    -0.72300
O612        O  0.75881547  0.18891836  0.98965872    -2.33200
O613        O  0.83528418  0.10973975  0.00398977    -2.29500
O614        O  0.81025797  0.23932505  0.99113375    -0.74000
H615        H  0.85218004  0.21897521  0.07404819     0.77900
H616        H  0.73251058  0.19343807  0.98713494     0.79000
H617        H  0.86585898  0.20576086  0.92059059     0.81300
H618        H  0.83962402  0.08338456  0.00609459     0.78900
H619        H  0.74503338  0.28706769  0.02013755     0.41900
H620        H  0.73819128  0.27186192  0.93919784     0.40900
H621        H  0.81970326  0.22329390  0.86398552     0.40600
H622        H  0.85248489  0.14603003  0.87519168     0.38500
H623        H  0.92624218  0.09464328  0.98261603     0.41600
H624        H  0.89927988  0.07837868  0.06369303     0.36400
H625        H  0.80715271  0.15273507  0.12126939     0.42500
H626        H  0.75426662  0.24425848  0.11559048     0.38900
H627        H  0.88853218  0.12136344  0.87775291     0.43900
H628        H  0.89089105  0.09206366  0.10406147     0.42600
H629        H  0.75955661  0.20133080  0.11917936     0.42700
H630        H  0.74845089  0.26742750  0.89724812     0.43100
O631        O  0.09336383  0.86267792  0.80442427    -0.75800
O632        O  0.06599095  0.87494910  0.74920953    -0.54700
C633        C  0.08881569  0.88285569  0.77565715     0.77900
O634        O  0.10364615  0.67093014  0.77911338    -0.60400
O635        O  0.06914796  0.65817045  0.83076926    -0.53400
C636        C  0.09375053  0.64983606  0.80621314     0.69900
O637        O  0.09677861  0.76173961  0.69345406    -0.75000
O638        O  0.06661541  0.81736588  0.69336567    -0.55500
C639        C  0.08717680  0.79261517  0.67818723     0.75900
O640        O  0.09303118  0.77738229  0.88941816    -0.60100
O641        O  0.06916283  0.71899921  0.89626783    -0.53200
C642        C  0.08941469  0.74698006  0.90713184     0.72500
Zr643      Zr  0.07508598  0.80512513  0.83250231     2.54700
O644        O  0.14212375  0.80512881  0.82818881    -0.80700
O645        O  0.06923727  0.85195116  0.88090841    -0.94100
Zr646      Zr  0.08492409  0.73142356  0.75325045     2.64700
O647        O  0.15150503  0.74248095  0.75934065    -0.99000
O648        O  0.09252372  0.68553034  0.70433318    -0.81100
O649        O  0.08095749  0.79564023  0.76861549    -0.84500
O650        O  0.08164999  0.74108101  0.81824766    -2.19200
O651        O  0.97972123  0.77417156  0.89027357    -0.67900
O652        O  0.98105882  0.71269995  0.89266720    -0.52400
C653        C  0.96725765  0.74384633  0.90363391     0.70900
O654        O  0.96006223  0.75719429  0.68737108    -0.60800
O655        O  0.99012936  0.81274097  0.68956503    -0.52700
C656        C  0.96897535  0.78919731  0.67345053     0.72700
O657        O  0.95878849  0.66390468  0.77362474    -0.72200
O658        O  0.98774325  0.65606570  0.82974296    -0.50800
C659        C  0.96562302  0.64549218  0.80346976     0.74100
O660        O  0.94816798  0.85172625  0.79661587    -0.67500
O661        O  0.97784052  0.87051871  0.74484220    -0.54700
C662        C  0.95192346  0.87404887  0.76916209     0.72500
Zr663      Zr  0.96682448  0.79565245  0.82796576     2.77500
O664        O  0.90476031  0.77000349  0.81949799    -0.98200
O665        O  0.93790838  0.83531780  0.87345037    -0.79100
Zr666      Zr  0.97528896  0.72443193  0.74673639     2.70100
O667        O  0.90764319  0.72432188  0.74455484    -0.80300
O668        O  0.98328934  0.67671337  0.69952507    -0.99400
Zr669      Zr  0.02484394  0.82025975  0.74444046     2.21500
Zr670      Zr  0.02737219  0.71023531  0.84139762     2.11100
O671        O  0.97124606  0.73219426  0.81237145    -2.48100
O672        O  0.97008977  0.78811958  0.76338497    -0.80100
O673        O  0.02225375  0.77443025  0.85529129    -0.72300
O674        O  0.02944921  0.75569363  0.72709429    -2.33200
O675        O  0.01949584  0.83014022  0.80881178    -2.29500
O676        O  0.03052842  0.70144112  0.77531762    -0.74000
H677        H  0.10385729  0.73136356  0.82974235     0.77900
H678        H  0.03023540  0.75253928  0.70060963     0.79000
H679        H  0.95014593  0.71880211  0.82203496     0.81300
H680        H  0.01738706  0.85616304  0.81496949     0.78900
H681        H  0.06705068  0.67609990  0.69968729     0.41900
H682        H  0.95771715  0.66821871  0.69373326     0.40900
H683        H  0.90099236  0.69970862  0.73417995     0.40600
H684        H  0.89736432  0.76088746  0.84418089     0.38500
H685        H  0.95879239  0.85018883  0.88360241     0.41600
H686        H  0.04718025  0.84410845  0.89525118     0.36400
H687        H  0.14745808  0.80628364  0.80137253     0.42500
H688        H  0.16309602  0.71859725  0.75226424     0.38900
H689        H  0.88881796  0.79172510  0.81431478     0.43900
H690        H  0.06116326  0.87483943  0.86816536     0.42600
H691        H  0.15771631  0.75948229  0.73879753     0.42700
H692        H  0.99137230  0.69017895  0.67711856     0.43100
O693        O  0.80676020  0.05403543  0.69935408    -0.75800
O694        O  0.86171330  0.02243068  0.69429124    -0.54700
C695        C  0.83798471  0.04680611  0.68305249     0.77900
O696        O  0.82727373  0.01426140  0.89405778    -0.60400
O697        O  0.76547727  0.01624006  0.89458434    -0.53400
C698        C  0.79708089  0.02781929  0.90667336     0.69900
O699        O  0.91426881  0.02603552  0.81079265    -0.75000
O700        O  0.91507537  0.01977887  0.74866581    -0.55500
C701        C  0.92634072  0.03496236  0.77888853     0.75900
O702        O  0.71317874  0.04712856  0.78786247    -0.60100
O703        O  0.70769914  0.00864196  0.83748743    -0.53200
C704        C  0.69570394  0.03430643  0.81661371     0.72500
Zr705      Zr  0.77335731  0.03286462  0.75548362     2.54700
O706        O  0.77448979  0.10019370  0.76202636    -0.80700
O707        O  0.72499969  0.03427022  0.70822919    -0.94100
Zr708      Zr  0.85117146  0.02459856  0.83228056     2.64700
O709        O  0.83693770  0.08852788  0.81599018    -0.99000
O710        O  0.89088451  0.05155262  0.87936807    -0.81100
O711        O  0.83851369  0.02935990  0.76868764    -0.84500
O712        O  0.78671406  0.02959984  0.81989869    -2.19200
O713        O  0.70742887  0.91243732  0.77376462    -0.67900
O714        O  0.70947167  0.93304091  0.83357099    -0.52400
C715        C  0.69289763  0.91773009  0.80610905     0.70900
O716        O  0.89879928  0.89672425  0.79451360    -0.60800
O717        O  0.91789895  0.92955745  0.74491754    -0.52700
C718        C  0.92169553  0.90262804  0.76837128     0.72700
O719        O  0.82419179  0.92970066  0.88848134    -0.72200
O720        O  0.76301711  0.92921718  0.89317069    -0.50800
C721        C  0.79469546  0.91641974  0.90259057     0.74100
O722        O  0.80204679  0.90927956  0.68662592    -0.67500
O723        O  0.85959338  0.93628049  0.68869701    -0.54700
C724        C  0.83420877  0.91735310  0.67240985     0.72500
Zr725      Zr  0.77005132  0.92316708  0.74662468     2.77500
O726        O  0.76967943  0.85562447  0.74735305    -0.98200
O727        O  0.72423396  0.92909264  0.69731777    -0.79100
Zr728      Zr  0.84460659  0.91541642  0.82641774     2.70100
O729        O  0.82171453  0.85196370  0.82604372    -0.80300
O730        O  0.89305446  0.89274827  0.86730449    -0.99400
Zr731      Zr  0.86469448  0.97465654  0.74206187     2.21500
Zr732      Zr  0.76129481  0.97270415  0.84200715     2.11100
O733        O  0.78113112  0.91718853  0.81161760    -2.48100
O734        O  0.83422481  0.91952056  0.76199427    -0.80100
O735        O  0.74708131  0.97696197  0.77731191    -0.72300
O736        O  0.87612191  0.96911624  0.80627250    -2.33200
O737        O  0.79929865  0.97887629  0.72667795    -2.29500
O738        O  0.82503374  0.96989790  0.85588290    -0.74000
H739        H  0.77585927  0.05053614  0.83262841     0.77900
H740        H  0.90201414  0.96479549  0.81186404     0.79000
H741        H  0.76837255  0.89578613  0.82143266     0.81300
H742        H  0.79616470  0.98095338  0.70024260     0.78900
H743        H  0.90691143  0.03081214  0.88753345     0.41900
H744        H  0.91517375  0.90803656  0.86144124     0.40900
H745        H  0.82860429  0.84229736  0.80132667     0.40600
H746        H  0.75185767  0.84895697  0.76708223     0.38500
H747        H  0.71041126  0.95201319  0.70353301     0.41600
H748        H  0.73533846  0.02008465  0.68716665     0.36400
H749        H  0.79879280  0.10795457  0.75180446     0.42500
H750        H  0.82132573  0.09844927  0.83618902     0.38900
H751        H  0.75696656  0.84843533  0.72407502     0.43900
H752        H  0.72457146  0.06034323  0.69968440     0.42600
H753        H  0.86088484  0.10200188  0.81740061     0.42700
H754        H  0.88612314  0.90126875  0.89234752     0.43100
O755        O  0.71929944  0.77305908  0.06648758    -0.75800
O756        O  0.71544130  0.82144999  0.02653765    -0.54700
C757        C  0.70228247  0.80202742  0.05281147     0.77900
O758        O  0.91526678  0.78370953  0.07073621    -0.60400
O759        O  0.92415482  0.72716388  0.04393299    -0.53400
C760        C  0.93315351  0.75308058  0.06708767     0.69900
O761        O  0.83584695  0.87665363  0.05034177    -0.75000
O762        O  0.77394089  0.87390379  0.04174841    -0.55500
C763        C  0.80293034  0.88671622  0.05844189     0.75900
O764        O  0.80672928  0.67483035  0.06412686    -0.60100
O765        O  0.86592910  0.67464968  0.04201581    -0.53200
C766        C  0.83849710  0.65881077  0.05800168     0.72500
Zr767      Zr  0.77908914  0.73767113  0.05279822     2.54700
O768        O  0.78373596  0.73984323  0.11994208    -0.80700
O769        O  0.72859277  0.69249613  0.05337862    -0.94100
Zr770      Zr  0.85981653  0.81463208  0.04854949     2.64700
O771        O  0.84645687  0.81904983  0.11416326    -0.99000
O772        O  0.90951180  0.86045818  0.05157493    -0.81100
O773        O  0.79506328  0.80188549  0.05075902    -0.84500
O774        O  0.84445891  0.75100484  0.05281447    -2.19200
O775        O  0.81100371  0.67150690  0.92876855    -0.67900
O776        O  0.86472175  0.67026589  0.96228351    -0.52400
C777        C  0.84184687  0.65604158  0.93911564     0.70900
O778        O  0.82767969  0.86429480  0.91957653    -0.60800
O779        O  0.77504728  0.87750016  0.95201545    -0.52700
C780        C  0.79895727  0.88425421  0.92659221     0.72700
O781        O  0.91457829  0.77640079  0.92024878    -0.72200
O782        O  0.92609737  0.72519757  0.95501056    -0.50800
C783        C  0.93408311  0.74780028  0.92827584     0.74100
O784        O  0.71816532  0.76165461  0.93030326    -0.67500
O785        O  0.72252493  0.82146508  0.95038423    -0.54700
C786        C  0.70465603  0.79475102  0.93512030     0.72500
Zr787      Zr  0.77991604  0.73174797  0.94290091     2.77500
O788        O  0.77925298  0.73412212  0.87561518    -0.98200
O789        O  0.73368518  0.68242428  0.94542656    -0.79100
Zr790      Zr  0.85963569  0.80886841  0.94005241     2.70100
O791        O  0.85697127  0.80833563  0.87347588    -0.80300
O792        O  0.90861374  0.85564573  0.94295175    -0.99400
Zr793      Zr  0.77214831  0.82506866  0.99370562     2.21500
Zr794      Zr  0.87234850  0.72467812  0.99898152     2.11100
O795        O  0.84513459  0.74496188  0.94219708    -2.48100
O796        O  0.79521747  0.79590221  0.93935028    -0.80100
O797        O  0.80677663  0.71059471  0.99923294    -0.72300
O798        O  0.83621875  0.83867691  0.99238465    -2.33200
O799        O  0.75519335  0.76075326  0.99651625    -2.29500
O800        O  0.88762520  0.78818210  0.99560142    -0.74000
H801        H  0.85530715  0.74067516  0.07495891     0.77900
H802        H  0.84082069  0.86482991  0.98898505     0.79000
H803        H  0.85625562  0.73250914  0.92128257     0.81300
H804        H  0.72858982  0.75727325  0.99689932     0.78900
H805        H  0.92520395  0.85504140  0.02977071     0.41900
H806        H  0.89897312  0.87548520  0.95929453     0.40900
H807        H  0.83625352  0.79111509  0.86767233     0.40600
H808        H  0.75917291  0.71672511  0.86827638     0.38500
H809        H  0.72085747  0.68637647  0.96930543     0.41600
H810        H  0.72905688  0.68197827  0.07863587     0.36400
H811        H  0.75929469  0.73077618  0.12867808     0.42500
H812        H  0.82178099  0.83106938  0.11550380     0.38900
H813        H  0.76922580  0.75899729  0.86975380     0.43900
H814        H  0.73719488  0.67200378  0.03722498     0.42600
H815        H  0.84156203  0.79313919  0.12172423     0.42700
H816        H  0.92884329  0.84400030  0.95742321     0.43100
C817        C  0.92459362  0.54108895  0.83951490    -0.06600
C818        C  0.90023084  0.57190272  0.83955054    -0.17800
C819        C  0.91164224  0.60668202  0.82635351     0.10600
C820        C  0.94629302  0.60955475  0.80877725    -0.06600
C821        C  0.96262974  0.57659250  0.79663075    -0.17800
C822        C  0.95078127  0.54202580  0.81025877     0.10600
S823        S  0.88048876  0.64549406  0.83177434    -0.32800
S824        S  0.95714520  0.50261389  0.78028296    -0.32800
H825        H  0.99189897  0.51424130  0.76667699     0.28600
H826        H  0.89534839  0.66755751  0.80355145     0.28600
H827        H  0.87240406  0.56964637  0.84985780     0.19200
H828        H  0.98155819  0.57780095  0.77390750     0.19200
C829        C  0.87901088  0.54514274  0.91252757    -0.06600
C830        C  0.90377507  0.57404502  0.92022995    -0.17800
C831        C  0.89207308  0.61065329  0.92252899     0.10600
C832        C  0.85365397  0.61904049  0.92484036    -0.06600
C833        C  0.82805335  0.59003981  0.91900306    -0.17800
C834        C  0.84041208  0.55369105  0.91089623     0.10600
S835        S  0.92834176  0.64528143  0.92015397    -0.32800
S836        S  0.80663063  0.52136569  0.89301642    -0.32800
H837        H  0.82935420  0.50957668  0.86369145     0.28600
H838        H  0.90599433  0.67266060  0.90372761     0.28600
H839        H  0.93304703  0.56910387  0.91957687     0.19200
H840        H  0.79853168  0.59587177  0.91957998     0.19200
C841        C  0.93792862  0.40655278  0.85644086    -0.06600
C842        C  0.96018353  0.38408278  0.87846917    -0.17800
C843        C  0.96792615  0.34752375  0.86847997     0.10600
C844        C  0.95636039  0.33378980  0.83306297    -0.06600
C845        C  0.93501354  0.35693943  0.81032953    -0.17800
C846        C  0.92517401  0.39291418  0.82180267     0.10600
S847        S  0.99019165  0.31870799  0.90318682    -0.32800
S848        S  0.89721497  0.41973861  0.79017686    -0.32800
H849        H  0.89068159  0.45087563  0.81250827     0.28600
H850        H  0.99598185  0.34606571  0.93044025     0.28600
H851        H  0.96987657  0.39490121  0.90474283     0.19200
H852        H  0.92615380  0.34710802  0.78334856     0.19200
C853        C  0.87882265  0.40575238  0.91104108    -0.06600
C854        C  0.89815543  0.38536074  0.93728802    -0.17800
C855        C  0.88995411  0.34845107  0.94461478     0.10600
C856        C  0.85818121  0.33072283  0.92808139    -0.06600
C857        C  0.83704656  0.35200394  0.90309298    -0.17800
C858        C  0.84750362  0.38877988  0.89370225     0.10600
S859        S  0.92424080  0.32653063  0.97378726    -0.32800
S860        S  0.81978967  0.41173434  0.85905585    -0.32800
H861        H  0.83913671  0.44541155  0.85817578     0.28600
H862        H  0.93114825  0.29748647  0.94868846     0.28600
H863        H  0.92244250  0.39725101  0.95017415     0.19200
H864        H  0.81277623  0.33972969  0.89008404     0.19200
C865        C  0.92023637  0.54641904  0.14105502    -0.06600
C866        C  0.91339345  0.55549564  0.17834034    -0.17800
C867        C  0.92594239  0.58914433  0.19385243     0.10600
C868        C  0.94367055  0.61550383  0.17103393    -0.06600
C869        C  0.94850818  0.60659375  0.13322643    -0.17800
C870        C  0.93900334  0.57217232  0.11858035     0.10600
S871        S  0.92052113  0.59557588  0.24287571    -0.32800
S872        S  0.95478304  0.56305246  0.07189757    -0.32800
H873        H  0.94483207  0.52572778  0.06902052     0.28600
H874        H  0.95756529  0.60705335  0.24835647     0.28600
H875        H  0.89913938  0.53567144  0.19577429     0.19200
H876        H  0.96173055  0.62609678  0.11466373     0.19200
C877        C  0.85968548  0.54340783  0.08642894    -0.06600
C878        C  0.87186543  0.55825744  0.05319906    -0.17800
C879        C  0.86812430  0.59586764  0.04546928     0.10600
C880        C  0.84458620  0.61867360  0.06759286    -0.06600
C881        C  0.82769422  0.60228245  0.09866496    -0.17800
C882        C  0.83610490  0.56536136  0.10898273     0.10600
S883        S  0.89852724  0.61390926  0.01018954    -0.32800
S884        S  0.81649901  0.54789669  0.15131598    -0.32800
H885        H  0.81975861  0.51007800  0.14228506     0.28600
H886        H  0.91595688  0.58081111  0.99912537     0.28600
H887        H  0.88930574  0.54158540  0.03558620     0.19200
H888        H  0.80959093  0.61877370  0.11605048     0.19200
C889        C  0.92336401  0.40807063  0.14672200    -0.06600
C890        C  0.95436953  0.39210860  0.13022348    -0.17800
C891        C  0.96786365  0.35755302  0.14053022     0.10600
C892        C  0.95074993  0.33774944  0.17033096    -0.06600
C893        C  0.92042933  0.35465588  0.18837046    -0.17800
C894        C  0.90648902  0.38947972  0.17665317     0.10600
S895        S  0.00784250  0.34116356  0.11449989    -0.32800
S896        S  0.86752190  0.41032239  0.20003296    -0.32800
H897        H  0.86266535  0.38213464  0.22640779     0.28600
H898        H  0.00353438  0.36386235  0.08320487     0.28600
H899        H  0.96718079  0.40599022  0.10727337     0.19200
H900        H  0.90734542  0.34037733  0.21118520     0.19200
C901        C  0.86789443  0.40493438  0.08697594    -0.06600
C902        C  0.89419114  0.38140812  0.07124805    -0.17800
C903        C  0.88662701  0.34403054  0.06659879     0.10600
C904        C  0.84935622  0.33132272  0.06745105    -0.06600
C905        C  0.82162465  0.35592700  0.07974091    -0.17800
C906        C  0.83101377  0.39200319  0.09162620     0.10600
S907        S  0.92640339  0.31360027  0.06594600    -0.32800
S908        S  0.79512916  0.41979237  0.11260695    -0.32800
H909        H  0.81869164  0.43970845  0.13656909     0.28600
H910        H  0.90954613  0.28655082  0.08840847     0.28600
H911        H  0.92201289  0.39137407  0.06600736     0.19200
H912        H  0.79295659  0.34678096  0.08118624     0.24000
C913        C  0.87176847  0.47223196  0.03900583    -0.06600
C914        C  0.90603189  0.46473297  0.02218904    -0.17800
C915        C  0.91151493  0.46727150  0.98383625     0.10600
C916        C  0.88136800  0.47505873  0.95977331    -0.06600
C917        C  0.84623390  0.48111740  0.97630404    -0.17800
C918        C  0.84134338  0.48044946  0.01550316     0.10600
S919        S  0.95803207  0.46070420  0.96645136    -0.32800
S920        S  0.79646116  0.48991795  0.03538044    -0.32800
H921        H  0.77707869  0.49298895  0.00168864     0.28600
H922        H  0.97667348  0.46605618  0.00029149     0.28600
H923        H  0.92922452  0.45747271  0.03951269     0.19200
H924        H  0.82259432  0.48630566  0.95873549     0.19200
C925        C  0.10055783  0.54189482  0.15076806    -0.06600
C926        C  0.12789168  0.55697980  0.17469227    -0.17800
C927        C  0.12233898  0.59147267  0.19259830     0.10600
C928        C  0.08755220  0.60934183  0.18916378    -0.06600
C929        C  0.05872677  0.59038009  0.17127046    -0.17800
C930        C  0.06604670  0.56043975  0.14848250     0.10600
S931        S  0.16105104  0.61245089  0.21627530    -0.32800
S932        S  0.03415817  0.55634555  0.11074021    -0.32800
H933        H  0.05694618  0.53564580  0.08790843     0.28600
H934        H  0.13959688  0.62555906  0.24599330     0.28600
H935        H  0.15471457  0.54350763  0.17683104     0.19200
H936        H  0.03164614  0.60337436  0.16900863     0.19200
C937        C  0.19183230  0.62048025  0.08278590    -0.06600
C938        C  0.21419702  0.58840526  0.08255906    -0.17800
C939        C  0.19855874  0.55267632  0.08892095     0.10600
C940        C  0.15924670  0.54820640  0.09184407    -0.06600
C941        C  0.13777254  0.58059417  0.09045009    -0.17800
C942        C  0.15350731  0.61579460  0.08976340     0.10600
S943        S  0.23019863  0.51431856  0.09336692    -0.32800
S944        S  0.12237642  0.65414224  0.09717656    -0.32800
H945        H  0.14968321  0.67840068  0.11135017     0.28600
H946        H  0.20955546  0.49610715  0.12089113     0.28600
H947        H  0.24365039  0.59101968  0.07695242     0.19200
H948        H  0.10793065  0.57893341  0.09088214     0.19200
C949        C  0.10741126  0.40865563  0.15020618    -0.06600
C950        C  0.07191956  0.39686455  0.16187984    -0.17800
C951        C  0.06755093  0.36609118  0.18478063     0.10600
C952        C  0.09647470  0.34042248  0.18834903    -0.06600
C953        C  0.13251508  0.35250902  0.17980112    -0.17800
C954        C  0.13816464  0.38839971  0.16497214     0.10600
S955        S  0.02587382  0.36220348  0.21179510    -0.32800
S956        S  0.18355187  0.40875654  0.17117144    -0.32800
H957        H  0.17140154  0.44581614  0.16981668     0.28600
H958        H  0.04123621  0.33881923  0.23889937     0.28600
H959        H  0.04689373  0.41069688  0.15385571     0.19200
H960        H  0.15605619  0.33480244  0.18576282     0.19200
C961        C  0.15660874  0.40765075  0.08288163    -0.06600
C962        C  0.19540722  0.40212292  0.08605965    -0.17800
C963        C  0.21200005  0.36743061  0.07836487     0.10600
C964        C  0.18931100  0.33661174  0.06946813    -0.06600
C965        C  0.15050317  0.34200427  0.06881407    -0.17800
C966        C  0.13438297  0.37696534  0.07285464     0.10600
S967        S  0.26181658  0.36452752  0.07943901    -0.32800
S968        S  0.08541330  0.38190231  0.06344760    -0.32800
H969        H  0.07813492  0.34517890  0.05224479     0.28600
H970        H  0.26375719  0.34637464  0.04499975     0.28600
H971        H  0.21293344  0.42503371  0.09480267     0.19200
H972        H  0.13241226  0.31861852  0.06309564     0.19200
C973        C  0.96848490  0.47795367  0.13972469    -0.06600
C974        C  0.98690601  0.47287172  0.10618153    -0.17800
C975        C  0.02543519  0.46969450  0.10317764     0.10600
C976        C  0.04876156  0.47472962  0.13484373    -0.06600
C977        C  0.03044437  0.48050242  0.16914544    -0.17800
C978        C  0.99084301  0.48110482  0.17203633     0.10600
S979        S  0.04062750  0.46198909  0.05636932    -0.32800
S980        S  0.97106042  0.48546367  0.21754098    -0.32800
H981        H  0.93438904  0.47596257  0.20802154     0.28600
H982        H  0.07841056  0.46336171  0.06243767     0.28600
H983        H  0.97054576  0.46957558  0.08142921     0.19200
H984        H  0.04711389  0.48388237  0.19392363     0.19200
C985        C  0.12717737  0.54006314  0.83466889    -0.06600
C986        C  0.09461057  0.54618440  0.81370795    -0.17800
C987        C  0.08685251  0.58116820  0.79881576     0.10600
C988        C  0.10918372  0.61172828  0.80829522    -0.06600
C989        C  0.14497267  0.60447762  0.82162914    -0.17800
C990        C  0.15522929  0.56777873  0.83034390     0.10600
S991        S  0.05160680  0.58453958  0.76389414    -0.32800
S992        S  0.20383501  0.55652864  0.82734995    -0.32800
H993        H  0.19816264  0.51807263  0.82332151     0.28600
H994        H  0.06459284  0.61732388  0.74742013     0.28600
H995        H  0.07556014  0.52415848  0.80711141     0.19200
H996        H  0.16515863  0.62674999  0.82366206     0.19200
C997        C  0.16930822  0.54286979  0.90758535    -0.06600
C998        C  0.14290189  0.57073530  0.91291386    -0.17800
C999        C  0.15347225  0.60709792  0.92086347     0.10600
C1000       C  0.19142045  0.61561708  0.92779481    -0.06600
C1001       C  0.21786643  0.58736213  0.92469246    -0.17800
C1002       C  0.20743055  0.55122959  0.91432938     0.10600
S1003       S  0.11799688  0.64246629  0.91938175    -0.32800
S1004       S  0.24478234  0.51871095  0.90761113    -0.32800
H1005       H  0.22683820  0.49651618  0.88110204     0.28600
H1006       H  0.08872112  0.62026896  0.90579787     0.28600
H1007       H  0.11381838  0.56428048  0.90845390     0.19200
H1008       H  0.24684867  0.59345348  0.93039799     0.19200
C1009       C  0.11421360  0.40295679  0.85002408    -0.06600
C1010       C  0.13362719  0.38752919  0.81976234    -0.17800
C1011       C  0.12427066  0.35239261  0.80499706     0.10600
C1012       C  0.09489051  0.33189622  0.82083690    -0.06600
C1013       C  0.07520381  0.34832666  0.85040155    -0.17800
C1014       C  0.08471811  0.38266640  0.86562546     0.10600
S1015       S  0.15228147  0.33429297  0.76806593    -0.32800
S1016       S  0.05805048  0.39781648  0.90533120    -0.32800
H1017       H  0.07826617  0.42958888  0.91528322     0.28600
H1018       H  0.12162654  0.32705398  0.74490282     0.28600
H1019       H  0.15641775  0.40294000  0.80768839     0.19200
H1020       H  0.05250352  0.33349567  0.86291164     0.19200
C1021       C  0.18925495  0.33139554  0.92911107    -0.06600
C1022       C  0.20963213  0.35015329  0.90192003    -0.17800
C1023       C  0.19943363  0.38592752  0.89040697     0.10600
C1024       C  0.16921855  0.40419052  0.90783650    -0.06600
C1025       C  0.15033797  0.38648319  0.93618046    -0.17800
C1026       C  0.15871240  0.35018422  0.94619695     0.10600
S1027       S  0.22670859  0.40642171  0.85385857    -0.32800
S1028       S  0.12840168  0.32908563  0.98012240    -0.32800
H1029       H  0.10214952  0.35776714  0.98323165     0.28600
H1030       H  0.20700958  0.43965075  0.84964782     0.28600
H1031       H  0.23273838  0.33636337  0.88853125     0.19200
H1032       H  0.12780232  0.40101175  0.94962331     0.19200
C1033       C  0.16284585  0.47603428  0.95567074    -0.06600
C1034       C  0.13384108  0.49576618  0.97247432    -0.17800
C1035       C  0.13042809  0.49990985  0.01104208     0.10600
C1036       C  0.15493409  0.48113294  0.03580114    -0.06600
C1037       C  0.18505795  0.46243871  0.01901476    -0.17800
C1038       C  0.18967389  0.46001640  0.97999524     0.10600
S1039       S  0.09516057  0.53158874  0.02642740    -0.32800
S1040       S  0.23142613  0.43724040  0.96457434    -0.32800
H1041       H  0.22856396  0.44693429  0.92736594     0.28600
H1042       H  0.07258159  0.53063331  0.99459162     0.28600
H1043       H  0.11338979  0.50874089  0.95477549     0.19200
H1044       H  0.20632550  0.45058371  0.03625034     0.19200
C1045       C  0.98663935  0.47749749  0.85908594    -0.06600
C1046       C  0.00492824  0.45503078  0.83247691    -0.17800
C1047       C  0.04405696  0.45563892  0.82738743     0.10600
C1048       C  0.06743775  0.47518162  0.85258139    -0.06600
C1049       C  0.04953525  0.49714677  0.87926881    -0.17800
C1050       C  0.01038675  0.49946980  0.88210306     0.10600
S1051       S  0.06148883  0.43420819  0.78585353    -0.32800
S1052       S  0.99230133  0.52954658  0.91731679    -0.32800
H1053       H  0.02585254  0.54634861  0.92850705     0.28600
H1054       H  0.09476618  0.45471563  0.78459085     0.28600
H1055       H  0.98847951  0.43855214  0.81347339     0.19200
H1056       H  0.06670326  0.51243325  0.89866164     0.19200
C1057       C  0.58895114  0.89032122  0.85448442    -0.06600
C1058       C  0.60343678  0.86596080  0.82745663    -0.17800
C1059       C  0.63635131  0.87434957  0.80831855     0.10600
C1060       C  0.65360050  0.90898841  0.81445002    -0.06600
C1061       C  0.63635085  0.93458560  0.83828904    -0.17800
C1062       C  0.60673042  0.92470585  0.86053122     0.10600
S1063       S  0.65629670  0.83905214  0.77926834    -0.32800
S1064       S  0.59719101  0.95637588  0.89802817    -0.32800
H1065       H  0.56887126  0.93655445  0.91474053     0.28600
H1066       H  0.66430768  0.86350763  0.75015273     0.28600
H1067       H  0.58969344  0.83967351  0.82219285     0.19200
H1068       H  0.64896925  0.96154960  0.84302146     0.19200
C1069       C  0.59258423  0.83262808  0.91154332    -0.06600
C1070       C  0.60680860  0.80202795  0.89150778    -0.17800
C1071       C  0.64303085  0.78831357  0.89793443     0.10600
C1072       C  0.66518196  0.80452517  0.92600293    -0.06600
C1073       C  0.64944521  0.83332324  0.94733099    -0.17800
C1074       C  0.61445207  0.84794043  0.94022054     0.10600
S1075       S  0.66002513  0.75203485  0.86822479    -0.32800
S1076       S  0.60106350  0.88638864  0.96936709    -0.32800
H1077       H  0.56637178  0.89326168  0.95430755     0.28600
H1078       H  0.69471325  0.76919813  0.86253803     0.28600
H1079       H  0.59010946  0.78971823  0.86967829     0.19200
H1080       H  0.66501955  0.84557371  0.96993147     0.19200
C1081       C  0.45225488  0.88537362  0.85495701    -0.06600
C1082       C  0.42792273  0.90392460  0.87831153    -0.17800
C1083       C  0.39083115  0.90755091  0.86932442     0.10600
C1084       C  0.37835241  0.89935960  0.83273663    -0.06600
C1085       C  0.40359184  0.88340198  0.80780857    -0.17800
C1086       C  0.44017773  0.87509681  0.81896856     0.10600
S1087       S  0.36087986  0.91986692  0.90746856    -0.32800
S1088       S  0.46967459  0.85230502  0.78563727    -0.32800
H1089       H  0.49927180  0.84307373  0.80917763     0.28600
H1090       H  0.33416625  0.89287028  0.89785145     0.28600
H1091       H  0.43707587  0.91276727  0.90543263     0.19200
H1092       H  0.39492117  0.87748645  0.77967538     0.19200
C1093       C  0.45296643  0.82595437  0.90937985    -0.06600
C1094       C  0.43260260  0.84418313  0.93656610    -0.17800
C1095       C  0.39784262  0.83252819  0.94798924     0.10600
C1096       C  0.38018559  0.80175516  0.93031070    -0.06600
C1097       C  0.40041074  0.78266405  0.90275637    -0.17800
C1098       C  0.43670049  0.79424263  0.89245098     0.10600
S1099       S  0.37860770  0.85807138  0.98672905    -0.32800
S1100       S  0.46017634  0.76844057  0.85675248    -0.32800
H1101       H  0.49649930  0.77764519  0.86796147     0.28600
H1102       H  0.39556739  0.89245371  0.97937038     0.28600
H1103       H  0.44289394  0.86938293  0.94833618     0.19200
H1104       H  0.38784751  0.75905915  0.88888021     0.19200
C1105       C  0.59380466  0.89392285  0.14274992    -0.06600
C1106       C  0.60568889  0.87172309  0.17270668    -0.17800
C1107       C  0.64083642  0.87701709  0.18966249     0.10600
C1108       C  0.66382235  0.90641487  0.17773769    -0.06600
C1109       C  0.65024881  0.93005179  0.15021149    -0.17800
C1110       C  0.61731540  0.92321488  0.13141494     0.10600
S1111       S  0.65514508  0.84481132  0.22479268    -0.32800
S1112       S  0.60974161  0.95112578  0.09123179    -0.32800
H1113       H  0.64725828  0.95280833  0.08060812     0.28600
H1114       H  0.69269110  0.84388273  0.21413832     0.28600
H1115       H  0.58816520  0.84909308  0.18187601     0.19200
H1116       H  0.66706362  0.95318809  0.14116315     0.19200
C1117       C  0.59030448  0.83837873  0.08329580    -0.06600
C1118       C  0.61362669  0.86036909  0.06188316    -0.17800
C1119       C  0.65071503  0.85092933  0.05572160     0.10600
C1120       C  0.66458858  0.81520362  0.06605616    -0.06600
C1121       C  0.64046006  0.79204695  0.08619300    -0.17800
C1122       C  0.60426621  0.80389750  0.09620907     0.10600
S1123       S  0.67929145  0.88828346  0.03847194    -0.32800
S1124       S  0.57756247  0.77375197  0.12562027    -0.32800
H1125       H  0.55573186  0.80139327  0.14220699     0.28600
H1126       H  0.70650564  0.88304028  0.06596723     0.28600
H1127       H  0.60350927  0.88677989  0.05213309     0.19200
H1128       H  0.64999440  0.76493715  0.09484209     0.19200
C1129       C  0.45898016  0.89075204  0.15872367    -0.06600
C1130       C  0.44801002  0.92691883  0.16871311    -0.17800
C1131       C  0.41657199  0.93291605  0.19040796     0.10600
C1132       C  0.38970943  0.90496792  0.19312440    -0.06600
C1133       C  0.40116073  0.86832222  0.18706603    -0.17800
C1134       C  0.43740572  0.86114237  0.17388641     0.10600
S1135       S  0.41374657  0.97460954  0.21773314    -0.32800
S1136       S  0.45460440  0.81442862  0.17780358    -0.32800
H1137       H  0.49241224  0.82441424  0.17625112     0.28600
H1138       H  0.38682864  0.96121241  0.24252527     0.28600
H1139       H  0.46219177  0.95115784  0.15920185     0.19200
H1140       H  0.38227811  0.84558045  0.19263619     0.19200
C1141       C  0.37474563  0.81335165  0.07826861    -0.06600
C1142       C  0.40526619  0.78910485  0.07751589    -0.17800
C1143       C  0.44185359  0.80174363  0.08485375     0.10600
C1144       C  0.44887740  0.84007172  0.09218643    -0.06600
C1145       C  0.41794150  0.86392422  0.09201736    -0.17800
C1146       C  0.38172798  0.85105226  0.08672133     0.10600
S1147       S  0.47767211  0.76702422  0.08536203    -0.32800
S1148       S  0.34546862  0.88470147  0.09188985    -0.32800
H1149       H  0.31952630  0.85953122  0.10665587     0.28600
H1150       H  0.49697831  0.78292239  0.11516944     0.28600
H1151       H  0.40073021  0.76020227  0.07042500     0.19200
H1152       H  0.42163799  0.89330896  0.09710974     0.19200
C1153       C  0.52107135  0.83458247  0.95906781    -0.06600
C1154       C  0.50545256  0.86540928  0.97647626    -0.17800
C1155       C  0.49857778  0.86712029  0.01427478     0.10600
C1156       C  0.51602748  0.84131455  0.03863345    -0.06600
C1157       C  0.53484844  0.81121022  0.02152363    -0.17800
C1158       C  0.53593734  0.80661698  0.98235948     0.10600
S1159       S  0.46371597  0.90134512  0.02553757    -0.32800
S1160       S  0.55710444  0.76512827  0.96437481    -0.32800
H1161       H  0.53939513  0.76631260  0.92969242     0.28600
H1162       H  0.47241005  0.90841302  0.06214419     0.28600
H1163       H  0.49738371  0.88891217  0.95968044     0.19200
H1164       H  0.54802859  0.79052997  0.03874524     0.19200
C1165       C  0.65938113  0.04871940  0.82955914    -0.06600
C1166       C  0.65391435  0.04815769  0.86824251    -0.17800
C1167       C  0.61915671  0.05338472  0.88393916     0.10600
C1168       C  0.58922797  0.06384809  0.86139874    -0.06600
C1169       C  0.59419829  0.06496427  0.82269714    -0.17800
C1170       C  0.62859327  0.05610962  0.80649536     0.10600
S1171       S  0.61495459  0.04736939  0.93308167    -0.32800
S1172       S  0.63094235  0.05327061  0.75685065    -0.32800
H1173       H  0.65366742  0.02155410  0.75612861     0.28600
H1174       H  0.57806978  0.03447068  0.93157531     0.28600
H1175       H  0.67687857  0.04196481  0.88669693     0.19200
H1176       H  0.57126701  0.07326292  0.80510376     0.19200
C1177       C  0.59308534  0.13567095  0.90455259    -0.06600
C1178       C  0.61927658  0.13755325  0.87528723    -0.17800
C1179       C  0.65761816  0.14312843  0.88207518     0.10600
C1180       C  0.66999757  0.14856584  0.91862469    -0.06600
C1181       C  0.64351698  0.15279198  0.94638853    -0.17800
C1182       C  0.60547022  0.15087526  0.93874498     0.10600
S1183       S  0.68952148  0.14060478  0.84392312    -0.32800
S1184       S  0.58084284  0.18780503  0.96074074    -0.32800
H1185       H  0.59605649  0.18190800  0.99617140     0.28600
H1186       H  0.71682470  0.12075853  0.86353095     0.28600
H1187       H  0.61029743  0.13240516  0.84720313     0.19200
H1188       H  0.65275104  0.16308108  0.97307952     0.19200
C1189       C  0.45277821  0.06955200  0.85765707    -0.06600
C1190       C  0.42470284  0.05770743  0.88121256    -0.17800
C1191       C  0.38901173  0.05177750  0.86856910     0.10600
C1192       C  0.38165476  0.05045368  0.83004202    -0.06600
C1193       C  0.41028011  0.06027885  0.80554363    -0.17800
C1194       C  0.44544444  0.07123717  0.81914066     0.10600
S1195       S  0.35387350  0.04933101  0.90389654    -0.32800
S1196       S  0.47960524  0.08662157  0.78615862    -0.32800
H1197       H  0.49866371  0.11094719  0.81007433     0.28600
H1198       H  0.32804713  0.07020018  0.88336418     0.28600
H1199       H  0.42968935  0.05547171  0.91045132     0.19200
H1200       H  0.40532215  0.05945718  0.77598561     0.19200
C1201       C  0.45229385  0.13134271  0.90993616    -0.06600
C1202       C  0.43699680  0.11736007  0.94231664    -0.17800
C1203       C  0.40062961  0.12464326  0.95260559     0.10600
C1204       C  0.37781910  0.14789015  0.93030725    -0.06600
C1205       C  0.39364151  0.16353856  0.89831302    -0.17800
C1206       C  0.43053713  0.15530903  0.88783184     0.10600
S1207       S  0.38448645  0.10095869  0.99335822    -0.32800
S1208       S  0.44790136  0.17516651  0.84560239    -0.32800
H1209       H  0.48586668  0.17203105  0.85433922     0.28600
H1210       H  0.41916742  0.08954176  0.00724234     0.28600
H1211       H  0.45259908  0.09723662  0.95791393     0.19200
H1212       H  0.37697020  0.18138755  0.88087750     0.19200
C1213       C  0.51780127  0.01845444  0.86644252    -0.06600
C1214       C  0.52914115  0.99962579  0.83393323    -0.17800
C1215       C  0.52881603  0.96006144  0.83096055     0.10600
C1216       C  0.51670789  0.93781078  0.86117346    -0.06600
C1217       C  0.50325947  0.95683906  0.89228707    -0.17800
C1218       C  0.50380857  0.99580149  0.89537279     0.10600
S1219       S  0.54414702  0.94031615  0.78779372    -0.32800
S1220       S  0.48678025  0.01528898  0.93770391    -0.32800
H1221       H  0.49285744  0.98396984  0.96005987     0.28600
H1222       H  0.53332617  0.90368799  0.79499262     0.28600
H1223       H  0.53821235  0.01566753  0.81043727     0.19200
H1224       H  0.49407781  0.94068612  0.91570268     0.19200
C1225       C  0.59433454  0.07551978  0.13899923    -0.06600
C1226       C  0.61626703  0.05263212  0.11711953    -0.17800
C1227       C  0.65200612  0.04284023  0.12749353     0.10600
C1228       C  0.66412953  0.04981011  0.16430403    -0.06600
C1229       C  0.64154946  0.07176896  0.18737425    -0.17800
C1230       C  0.60734005  0.08575809  0.17456034     0.10600
S1231       S  0.68200408  0.02438273  0.09169667    -0.32800
S1232       S  0.58127132  0.11560769  0.20501789    -0.32800
H1233       H  0.56166870  0.13453410  0.17722265     0.28600
H1234       H  0.65694469  0.02639564  0.06188758     0.28600
H1235       H  0.60543853  0.04206194  0.09163871     0.19200
H1236       H  0.65053385  0.07817123  0.21530272     0.19200
C1237       C  0.58699165  0.12627008  0.07576376    -0.06600
C1238       C  0.60214588  0.15805848  0.09313737    -0.17800
C1239       C  0.63824245  0.17107684  0.08482013     0.10600
C1240       C  0.65957214  0.15269944  0.05748194    -0.06600
C1241       C  0.64267156  0.12315330  0.03816518    -0.17800
C1242       C  0.60795594  0.10914912  0.04736172     0.10600
S1243       S  0.65603142  0.20928449  0.11172415    -0.32800
S1244       S  0.59567792  0.06726499  0.02304839    -0.32800
H1245       H  0.56817685  0.05612990  0.04722301     0.28600
H1246       H  0.68950344  0.19118183  0.12047300     0.28600
H1247       H  0.58667472  0.17138643  0.11515738     0.19200
H1248       H  0.65751612  0.10901377  0.01622357     0.19200
C1249       C  0.45788338  0.06903479  0.15169784    -0.06600
C1250       C  0.44355780  0.03598172  0.13760321    -0.17800
C1251       C  0.40767701  0.02460630  0.14540611     0.10600
C1252       C  0.38618929  0.04504949  0.17176230    -0.06600
C1253       C  0.40183428  0.07675042  0.18836617    -0.17800
C1254       C  0.43722491  0.08939477  0.17798463     0.10600
S1255       S  0.39068253  0.98460670  0.11939462    -0.32800
S1256       S  0.45367874  0.13239170  0.19777409    -0.32800
H1257       H  0.49154330  0.12689901  0.19020662     0.28600
H1258       H  0.42409723  0.97388359  0.10230366     0.28600
H1259       H  0.45880825  0.02147014  0.11639762     0.19200
H1260       H  0.38586176  0.09259700  0.20825549     0.19200
C1261       C  0.44789450  0.12445367  0.09346479    -0.06600
C1262       C  0.41980007  0.09915296  0.08432191    -0.17800
C1263       C  0.38265558  0.10961305  0.08197691     0.10600
C1264       C  0.37312310  0.14769893  0.08146682    -0.06600
C1265       C  0.40108440  0.17377739  0.09014766    -0.17800
C1266       C  0.43801744  0.16239255  0.09749761     0.10600
S1267       S  0.34791866  0.07323705  0.07999746    -0.32800
S1268       S  0.47104216  0.19776666  0.11095566    -0.32800
H1269       H  0.49720901  0.17458978  0.12808664     0.28600
H1270       H  0.37135880  0.04517229  0.06640818     0.28600
H1271       H  0.42655426  0.07046908  0.07992685     0.19200
H1272       H  0.39441290  0.20307498  0.09050112     0.19200
C1273       C  0.52848313  0.02582050  0.14271752    -0.06600
C1274       C  0.53041542  0.00721955  0.10912657    -0.17800
C1275       C  0.52764076  0.96898821  0.10549307     0.10600
C1276       C  0.52708843  0.94599334  0.13746044    -0.06600
C1277       C  0.52891629  0.96433928  0.17226792    -0.17800
C1278       C  0.52763837  0.00385758  0.17522377     0.10600
S1279       S  0.52797106  0.95411698  0.05781776    -0.32800
S1280       S  0.52469701  0.02390580  0.22077457    -0.32800
H1281       H  0.51740159  0.06046131  0.20980044     0.28600
H1282       H  0.54199311  0.91865482  0.06274965     0.28600
H1283       H  0.53360536  0.02335353  0.08466148     0.19200
H1284       H  0.52888897  0.94780024  0.19721721     0.19200
C1285       C  0.51958471  0.12786872  0.95836460    -0.06600
C1286       C  0.52328420  0.09397994  0.97646042    -0.17800
C1287       C  0.51266101  0.08950908  0.01326031     0.10600
C1288       C  0.51075110  0.12070133  0.03694816    -0.06600
C1289       C  0.50602228  0.15534814  0.01954762    -0.17800
C1290       C  0.50605280  0.15825545  0.98021659     0.10600
S1291       S  0.49754784  0.04362723  0.02567458    -0.32800
S1292       S  0.49019657  0.20145365  0.96052138    -0.32800
H1293       H  0.50101348  0.19418972  0.92393831     0.28600
H1294       H  0.48131570  0.05268682  0.05924256     0.28600
H1295       H  0.53053652  0.06977599  0.96056220     0.19200
H1296       H  0.50118866  0.17980036  0.03627643     0.19200
C1297       C  0.94548713  0.83607099  0.56582193    -0.06600
C1298       C  0.94119214  0.79743354  0.57065568    -0.17800
C1299       C  0.94723080  0.78044745  0.60531770     0.10600
C1300       C  0.95565623  0.80275766  0.63655267    -0.06600
C1301       C  0.95788885  0.84151768  0.63135466    -0.17800
C1302       C  0.95569112  0.85769327  0.59676874     0.10600
S1303       S  0.94489855  0.73069739  0.60746621    -0.32800
S1304       S  0.96828806  0.90601064  0.59436354    -0.32800
H1305       H  0.98014623  0.90309939  0.55772406     0.28600
H1306       H  0.91991343  0.73059161  0.63731535     0.28600
H1307       H  0.93230172  0.78045877  0.54746832     0.19200
H1308       H  0.96394319  0.85989827  0.65440824     0.19200
C1309       C  0.88139314  0.88797170  0.56717603    -0.06600
C1310       C  0.88357962  0.92345117  0.58187647    -0.17800
C1311       C  0.86373147  0.93390761  0.61261025     0.10600
C1312       C  0.84424362  0.90734548  0.63371368    -0.06600
C1313       C  0.84117411  0.87109261  0.61941913    -0.17800
C1314       C  0.85844860  0.86147223  0.58549342     0.10600
S1315       S  0.86557794  0.98206511  0.62445789    -0.32800
S1316       S  0.84993348  0.81541916  0.56764078    -0.32800
H1317       H  0.86175400  0.82195962  0.53134436     0.28600
H1318       H  0.87519584  0.99564647  0.58928947     0.28600
H1319       H  0.90242978  0.94340666  0.57018704     0.19200
H1320       H  0.82608366  0.85022888  0.63483150     0.19200
C1321       C  0.87889899  0.89591852  0.43356626    -0.06600
C1322       C  0.89104281  0.92860074  0.41719711    -0.17800
C1323       C  0.88236503  0.93667998  0.38065671     0.10600
C1324       C  0.85644441  0.91371004  0.36077197    -0.06600
C1325       C  0.84129683  0.88275640  0.37870894    -0.17800
C1326       C  0.85309897  0.87299555  0.41444104     0.10600
S1327       S  0.90733417  0.97557139  0.36072562    -0.32800
S1328       S  0.83632552  0.82972514  0.43291310    -0.32800
H1329       H  0.84372019  0.83813541  0.47012529     0.28600
H1330       H  0.91758165  0.99330005  0.39397779     0.28600
H1331       H  0.91193464  0.94508033  0.43128800     0.19200
H1332       H  0.82176793  0.86498998  0.36414692     0.19200
C1333       C  0.93447666  0.83508953  0.42752573    -0.06600
C1334       C  0.94033102  0.85746045  0.39664761    -0.17800
C1335       C  0.94117572  0.84314321  0.36128498     0.10600
C1336       C  0.94420284  0.80444473  0.35572040    -0.06600
C1337       C  0.94029484  0.78100137  0.38647269    -0.17800
C1338       C  0.93384563  0.79595394  0.42211512     0.10600
S1339       S  0.93847182  0.87652482  0.32433165    -0.32800
S1340       S  0.92539094  0.76376395  0.45915952    -0.32800
H1341       H  0.90086447  0.78680625  0.47881841     0.28600
H1342       H  0.92030843  0.85230107  0.29951596     0.28600
H1343       H  0.94305047  0.88699660  0.39952410     0.19200
H1344       H  0.94281966  0.75125099  0.38290741     0.19200
C1345       C  0.93473917  0.12178007  0.56103960    -0.06600
C1346       C  0.90849041  0.15669999  0.57902856    -0.17800
C1347       C  0.90672500  0.16344428  0.62498144     0.10600
C1348       C  0.93153970  0.13618561  0.65357318    -0.06600
C1349       C  0.95657764  0.09982328  0.63552630    -0.17800
C1350       C  0.95820517  0.09270567  0.58948615     0.10600
S1351       S  0.87900171  0.20094406  0.64223496    -0.32800
S1352       S  0.98044811  0.05220843  0.57117641    -0.32800
H1353       H  0.98954722  0.03773150  0.60611172     0.28600
H1354       H  0.87462858  0.18519368  0.67748064     0.28600
H1355       H  0.89072515  0.17287476  0.56107614     0.19200
H1356       H  0.97302570  0.08225823  0.65339355     0.19200
C1357       C  0.87480011  0.08543039  0.57633557    -0.06600
C1358       C  0.83870670  0.07139675  0.58155657    -0.17800
C1359       C  0.82446198  0.06278803  0.61619002     0.10600
C1360       C  0.84724331  0.06618104  0.64743725    -0.06600
C1361       C  0.88208545  0.08360038  0.64361382    -0.17800
C1362       C  0.89695708  0.10051544  0.60930779     0.10600
S1363       S  0.77885045  0.04197374  0.61765986    -0.32800
S1364       S  0.97228566  0.15832234  0.60404510    -0.32800
H1365       H  0.99407690  0.15683261  0.63673039     0.28600
H1366       H  0.78931501  0.01182555  0.63986585     0.28600
H1367       H  0.82140392  0.06570201  0.55777020     0.19200
H1368       H  0.89754806  0.08321662  0.66930580     0.19200
C1369       C  0.94089345  0.14558641  0.35363291    -0.06600
C1370       C  0.93356871  0.17103062  0.38204714    -0.17800
C1371       C  0.92343989  0.15903629  0.41764763     0.10600
C1372       C  0.92129284  0.12039294  0.42561103    -0.06600
C1373       C  0.92829462  0.09516262  0.39711907    -0.17800
C1374       C  0.93686098  0.10704959  0.36142980     0.10600
S1375       S  0.91269400  0.19501898  0.45066938    -0.32800
S1376       S  0.94096106  0.07167028  0.32632511    -0.32800
H1377       H  0.95523914  0.04430122  0.35008632     0.28600
H1378       H  0.89168502  0.17334748  0.47513658     0.28600
H1379       H  0.93671622  0.20046137  0.37681864     0.19200
H1380       H  0.92625350  0.06571253  0.40270637     0.19200
C1381       C  0.82951223  0.05193893  0.36210548    -0.06600
C1382       C  0.83112697  0.08919134  0.37334449    -0.17800
C1383       C  0.84060507  0.09838037  0.41039486     0.10600
C1384       C  0.85560942  0.07077614  0.43427165    -0.06600
C1385       C  0.85055175  0.03361891  0.42314238    -0.17800
C1386       C  0.83272130  0.02491108  0.38975609     0.10600
S1387       S  0.83206974  0.14459807  0.42745470    -0.32800
S1388       S  0.80741654  0.98195706  0.38668179    -0.32800
H1389       H  0.78161222  0.99424575  0.36013980     0.28600
H1390       H  0.81617925  0.15847030  0.39472976     0.28600
H1391       H  0.82481130  0.11074440  0.35354696     0.19200
H1392       H  0.86017819  0.01086479  0.43955351     0.19200
C1393       C  0.88716107  0.94405409  0.50249116    -0.06600
C1394       C  0.85079246  0.95887548  0.50342981    -0.17800
C1395       C  0.84413959  0.99791828  0.50585835     0.10600
C1396       C  0.87456577  0.02344075  0.50724022    -0.06600
C1397       C  0.91033367  0.00832933  0.50698890    -0.17800
C1398       C  0.91692490  0.97003362  0.50502590     0.10600
S1399       S  0.79643413  0.01291991  0.50407981    -0.32800
S1400       S  0.96434435  0.95576466  0.50892976    -0.32800
H1401       H  0.98037130  0.98806536  0.49394564     0.28600
H1402       H  0.80332323  0.04991532  0.49415690     0.28600
H1403       H  0.82739387  0.93996628  0.50191774     0.19200
H1404       H  0.93383897  0.02711481  0.50799354     0.19200
C1405       C  0.16772339  0.06131239  0.56843319    -0.06600
C1406       C  0.17128879  0.02505367  0.58167218    -0.17800
C1407       C  0.19423140  0.01703107  0.61132829     0.10600
C1408       C  0.20567795  0.04528232  0.63555002    -0.06600
C1409       C  0.20239933  0.08220511  0.62351467    -0.17800
C1410       C  0.18631960  0.09007308  0.58853670     0.10600
S1411       S  0.21140296  0.97058550  0.61497159    -0.32800
S1412       S  0.19204328  0.13634542  0.57064397    -0.32800
H1413       H  0.18974251  0.12629131  0.53312982     0.28600
H1414       H  0.24412345  0.98022368  0.63416243     0.28600
H1415       H  0.15729867  0.00212174  0.56852820     0.19200
H1416       H  0.21266271  0.10459102  0.64084159     0.19200
C1417       C  0.08322745  0.13830147  0.63662308    -0.06600
C1418       C  0.08121246  0.09976432  0.62999042    -0.17800
C1419       C  0.08768780  0.08431288  0.59515988     0.10600
C1420       C  0.09908223  0.10694329  0.56545166    -0.06600
C1421       C  0.10206247  0.14548168  0.57205275    -0.17800
C1422       C  0.09361826  0.16136350  0.60681519     0.10600
S1423       S  0.07948696  0.03543159  0.59021016    -0.32800
S1424       S  0.09507546  0.21101338  0.61091817    -0.32800
H1425       H  0.12150990  0.21032663  0.63964188     0.28600
H1426       H  0.05853569  0.04110634  0.55799195     0.28600
H1427       H  0.07321210  0.08115900  0.65209485     0.19200
H1428       H  0.11204369  0.16334719  0.55018815     0.19200
C1429       C  0.10327546  0.14323834  0.35647348    -0.06600
C1430       C  0.10153947  0.16526336  0.38847762    -0.17800
C1431       C  0.10819860  0.14976802  0.42360804     0.10600
C1432       C  0.11348866  0.11076871  0.42707529    -0.06600
C1433       C  0.11404780  0.08921583  0.39474437    -0.17800
C1434       C  0.11216710  0.10533132  0.36005768     0.10600
S1435       S  0.11175704  0.18163059  0.46205176    -0.32800
S1436       S  0.12267558  0.07602361  0.32114209    -0.32800
H1437       H  0.13541149  0.10494348  0.29834808     0.28600
H1438       H  0.13813121  0.16122034  0.48217064     0.28600
H1439       H  0.09473068  0.19443834  0.38616200     0.19200
H1440       H  0.11842798  0.05952629  0.39635612     0.19200
C1441       C  0.21324907  0.04675835  0.36331423    -0.06600
C1442       C  0.20755347  0.08350817  0.37484413    -0.17800
C1443       C  0.19522333  0.09104682  0.41127637     0.10600
C1444       C  0.18095933  0.06150012  0.43356575    -0.06600
C1445       C  0.19092653  0.02533273  0.42240943    -0.17800
C1446       C  0.21124850  0.01907545  0.39023418     0.10600
S1447       S  0.19889403  0.13820335  0.42750914    -0.32800
S1448       S  0.23805555  0.97719689  0.38660936    -0.32800
H1449       H  0.26424289  0.99150438  0.36157243     0.28600
H1450       H  0.19852826  0.12885653  0.46520627     0.28600
H1451       H  0.21271236  0.10609292  0.35584047     0.19200
H1452       H  0.18272672  0.00105175  0.43723850     0.19200
C1453       C  0.97697095  0.11500504  0.48827861    -0.06600
C1454       C  0.99388627  0.08537854  0.46970523    -0.17800
C1455       C  0.03273832  0.08127047  0.46773615     0.10600
C1456       C  0.05670764  0.10496922  0.48893546    -0.06600
C1457       C  0.03977016  0.13627454  0.50524850    -0.17800
C1458       C  0.00092171  0.14236917  0.50388847     0.10600
S1459       S  0.04966512  0.04637627  0.43609221    -0.32800
S1460       S  0.98537273  0.18759475  0.51852439    -0.32800
H1461       H  0.94725670  0.18070002  0.51657286     0.28600
H1462       H  0.01530466  0.03307881  0.42284194     0.28600
H1463       H  0.97617199  0.06478735  0.45670633     0.19200
H1464       H  0.05691546  0.15741749  0.51772285     0.19200
C1465       C  0.09699012  0.80037768  0.63924465    -0.06600
C1466       C  0.07262010  0.82379314  0.61984843    -0.17800
C1467       C  0.08057470  0.83647919  0.58469711     0.10600
C1468       C  0.11288042  0.82400358  0.56672659    -0.06600
C1469       C  0.13605257  0.79823722  0.58467719    -0.17800
C1470       C  0.12877663  0.78661560  0.62102664     0.10600
S1471       S  0.04854368  0.86981577  0.56631887    -0.32800
S1472       S  0.16122647  0.75620650  0.64393009    -0.32800
H1473       H  0.19106707  0.76242885  0.61961720     0.28600
H1474       H  0.07183287  0.88590288  0.54003244     0.28600
H1475       H  0.04730569  0.83370714  0.63271849     0.19200
H1476       H  0.16090719  0.78871583  0.57073773     0.19200
C1477       C  0.16976290  0.87981103  0.57271614    -0.06600
C1478       C  0.20297787  0.86410858  0.58618048    -0.17800
C1479       C  0.21476673  0.86997105  0.62312731     0.10600
C1480       C  0.19126841  0.88957976  0.64775317    -0.06600
C1481       C  0.15635321  0.90130327  0.63453375    -0.17800
C1482       C  0.14759607  0.90051686  0.59717997     0.10600
S1483       S  0.25941052  0.85262939  0.63788089    -0.32800
S1484       S  0.11236139  0.93207968  0.58129805    -0.32800
H1485       H  0.09462745  0.93814709  0.61540235     0.28600
H1486       H  0.27063444  0.83863570  0.60330274     0.28600
H1487       H  0.21970009  0.84753871  0.56756416     0.19200
H1488       H  0.13747169  0.91581108  0.65275135     0.19200
C1489       C  0.10039103  0.80658764  0.35599123    -0.06600
C1490       C  0.11569834  0.78008187  0.38013651    -0.17800
C1491       C  0.12698907  0.78999175  0.41620660     0.10600
C1492       C  0.12167023  0.82681922  0.42878373    -0.06600
C1493       C  0.10482951  0.85232058  0.40513177    -0.17800
C1494       C  0.09645854  0.84359710  0.36881867     0.10600
S1495       S  0.14669690  0.75421568  0.44493849    -0.32800
S1496       S  0.08310381  0.88220533  0.34012967    -0.32800
H1497       H  0.10797697  0.87196560  0.31192258     0.28600
H1498       H  0.16659560  0.77754748  0.46912423     0.28600
H1499       H  0.11844041  0.75151089  0.37112753     0.19200
H1500       H  0.09929075  0.88020000  0.41442371     0.19200
C1501       C  0.19529489  0.90269126  0.36026870    -0.06600
C1502       C  0.21512019  0.87381975  0.37759903    -0.17800
C1503       C  0.20739962  0.86343444  0.41433069     0.10600
C1504       C  0.17971371  0.88249744  0.43441734    -0.06600
C1505       C  0.16221459  0.91275825  0.41814627    -0.17800
C1506       C  0.16844056  0.92259087  0.38161221     0.10600
S1507       S  0.23310794  0.82539193  0.43395921    -0.32800
S1508       S  0.14091804  0.96110973  0.36427571    -0.32800
H1509       H  0.12756216  0.97462477  0.39829856     0.28600
H1510       H  0.22885572  0.83637946  0.47105450     0.28600
H1511       H  0.23628665  0.85890447  0.36237218     0.19200
H1512       H  0.14010671  0.92641399  0.43277187     0.19200
C1513       C  0.17068724  0.92784603  0.50345561    -0.06600
C1514       C  0.13633228  0.94532707  0.49970309    -0.17800
C1515       C  0.13260954  0.98379841  0.49961347     0.10600
C1516       C  0.16427426  0.00717374  0.50116267    -0.06600
C1517       C  0.19931961  0.98987242  0.50578827    -0.17800
C1518       C  0.20279887  0.95053431  0.50717421     0.10600
S1519       S  0.08637143  0.00185421  0.50058527    -0.32800
S1520       S  0.24851535  0.93155268  0.51434020    -0.32800
H1521       H  0.23939939  0.89407390  0.50885505     0.28600
H1522       H  0.06706354  0.96854009  0.50724687     0.28600
H1523       H  0.11170220  0.92813804  0.49725393     0.19200
H1524       H  0.22391861  0.00706720  0.50843815     0.19200
C1525       C  0.06996625  0.82853713  0.49210238    -0.06600
C1526       C  0.05273401  0.85922773  0.47590726    -0.17800
C1527       C  0.01421192  0.86304862  0.47350830     0.10600
C1528       C  0.99025231  0.83720657  0.49122581    -0.06600
C1529       C  0.00719636  0.80484310  0.50568940    -0.17800
C1530       C  0.04660242  0.79992758  0.50557498     0.10600
S1531       S  0.99787745  0.90280700  0.44838430    -0.32800
S1532       S  0.06669117  0.75751365  0.52258396    -0.32800
H1533       H  0.03299444  0.74046199  0.53262723     0.28600
H1534       H  0.03024564  0.90900500  0.42746208     0.28600
H1535       H  0.06982239  0.88232793  0.46743688     0.19200
H1536       H  0.98977447  0.78324584  0.51679187     0.19200
loop_ 
_geom_bond_atom_site_label_1 
_geom_bond_atom_site_label_2 
_geom_bond_distance 
_geom_bond_site_symmetry_2 
_ccdc_geom_bond_type 
C1            C2   1.427       .  A
C1            C6   1.412       .  A
C1         C1477   1.495       .  S
C2            C3   1.420       .  A
C2         C1468   1.478       .  S
C3            C4   1.419       .  A
C3         C1525   1.521       .  S
C4            C5   1.433       .  A
C4         C1492   1.492       .  S
C5            C6   1.421       .  A
C5         C1504   1.491       .  S
C6         C1513   1.508       .  S
C7            C8   1.436       .  A
C7           C12   1.443       .  A
C7         C1420   1.510       .  S
C8            C9   1.421       .  A
C8         C1405   1.509       .  S
C9           C10   1.425       .  A
C9         C1516   1.519       .  S
C10          C11   1.446       .  A
C10        C1444   1.532       .  S
C11          C12   1.436       .  A
C11        C1432   1.501       .  S
C12        C1456   1.539       .  S
C13          C14   1.417       .  A
C13          C18   1.448       .  A
C13        C1372   1.501       .  S
C14          C15   1.400       .  A
C14        C1453   1.520       .  S
C15          C16   1.387       .  A
C15        C1345   1.402       .  S
C16          C17   1.449       .  A
C16        C1357   1.560       .  S
C17          C18   1.454       .  A
C17        C1396   1.523       .  S
C18        C1384   1.526       .  S
C19          C20   1.423       .  A
C19          C24   1.440       .  A
C19        C1333   1.505       .  S
C20          C21   1.434       .  A
C20        C1528   1.531       .  S
C21          C22   1.437       .  A
C21        C1297   1.496       .  S
C22          C23   1.418       .  A
C22        C1309   1.498       .  S
C23          C24   1.414       .  A
C23        C1393   1.540       .  S
C24        C1321   1.484       .  S
C25          C26   1.432       .  A
C25          C30   1.407       .  A
C25        C1225   1.486       .  S
C26          C27   1.431       .  A
C26        C1237   1.501       .  S
C27          C28   1.425       .  A
C27        C1288   1.519       .  S
C28          C29   1.437       .  A
C28        C1261   1.505       .  S
C29          C30   1.417       .  A
C29        C1249   1.479       .  S
C30        C1273   1.519       .  S
C31          C32   1.427       .  A
C31          C36   1.433       .  A
C31        C1201   1.496       .  S
C32          C33   1.438       .  A
C32        C1285   1.521       .  S
C33          C34   1.459       .  A
C33        C1177   1.548       .  S
C34          C35   1.427       .  A
C34        C1168   1.484       .  S
C35          C36   1.412       .  A
C35        C1213   1.545       .  S
C36        C1189   1.488       .  S
C37          C38   1.431       .  A
C37          C42   1.439       .  A
C37        C1117   1.504       .  S
C38          C39   1.414       .  A
C38        C1105   1.505       .  S
C39          C40   1.437       .  A
C39        C1276   1.522       .  S
C40          C41   1.453       .  A
C40        C1129   1.525       .  S
C41          C42   1.437       .  A
C41        C1144   1.529       .  S
C42        C1156   1.529       .  S
C43          C44   1.418       .  A
C43          C48   1.435       .  A
C43        C1081   1.480       .  S
C44          C45   1.421       .  A
C44        C1216   1.535       .  S
C45          C46   1.432       .  A
C45        C1057   1.481       .  S
C46          C47   1.420       .  A
C46        C1069   1.494       .  S
C47          C48   1.431       .  A
C47        C1153   1.521       .  S
C48        C1093   1.509       .  S
C49          C50   1.422       .  A
C49          C54   1.426       .  A
C49        C1009   1.491       .  S
C50          C51   1.435       .  A
C50        C1048   1.535       .  S
C51          C52   1.452       .  A
C51         C985   1.539       .  S
C52          C53   1.429       .  A
C52         C997   1.495       .  S
C53          C54   1.419       .  A
C53        C1033   1.536       .  S
C54        C1024   1.481       .  S
C55          C56   1.438       .  A
C55          C60   1.446       .  A
C55         C940   1.525       .  S
C56          C57   1.450       .  A
C56        C1036   1.547       .  S
C57          C58   1.449       .  A
C57         C961   1.508       .  S
C58          C59   1.425       .  A
C58         C949   1.531       .  S
C59          C60   1.420       .  A
C59         C976   1.530       .  S
C60         C925   1.504       .  S
C61          C62   1.422       .  A
C61          C66   1.435       .  A
C61         C865   1.482       .  S
C62          C63   1.418       .  A
C62         C973   1.523       .  S
C63          C64   1.435       .  A
C63         C889   1.502       .  S
C64          C65   1.419       .  A
C64         C901   1.482       .  S
C65          C66   1.422       .  A
C65         C913   1.524       .  S
C66         C877   1.502       .  S
C67          C68   1.438       .  A
C67          C72   1.462       .  A
C67         C817   1.545       .  S
C68          C69   1.425       .  A
C68        C1045   1.554       .  S
C69          C70   1.431       .  A
C69         C841   1.483       .  S
C70          C71   1.420       .  A
C70         C853   1.507       .  S
C71          C72   1.433       .  A
C71         C916   1.529       .  S
C72         C829   1.502       .  S
O73         Zr85   2.479       .  S
O73          C75   1.293       .  A
O74        Zr111   2.378       .  S
O74          C75   1.282       .  A
C75        C1480   1.498       .  S
O76         Zr88   2.426       .  S
O76          C78   1.279       .  A
O77        Zr112   2.451       .  S
O77          C78   1.283       .  A
C78         C290   1.478       .  S
O79         Zr88   2.412       .  S
O79          C81   1.276       .  A
O80        Zr111   2.484       .  S
O80          C81   1.291       .  A
C81         C633   1.481       .  S
O82         Zr85   2.506       .  S
O82          C84   1.299       .  A
O83        Zr112   2.325       .  S
O83          C84   1.267       .  A
C84        C1084   1.483       .  S
Zr85         O86   2.436       .  S
Zr85         O87   2.437       .  S
Zr85         O91   2.396       .  S
Zr85         O92   2.380       .  S
Zr85        O115   2.369       .  S
Zr85        O117   2.387       .  S
O86         H129   0.990       .  S
O87         H128   0.990       .  S
O87         H132   0.990       .  S
Zr88         O89   2.430       .  S
Zr88         O90   2.427       .  S
Zr88         O92   2.369       .  S
Zr88         O91   2.365       .  S
Zr88        O116   2.377       .  S
Zr88        O118   2.355       .  S
O89         H130   0.989       .  S
O89         H133   0.989       .  S
O90         H123   0.990       .  S
O91        Zr111   2.389       .  S
O92        Zr112   2.387       .  S
O92         H119   0.966       .  S
O93        Zr105   2.495       .  S
O93          C95   1.298       .  A
O94        Zr112   2.364   1_545  S
O94          C95   1.277       .  A
C95        C1192   1.482       .  S
O96        Zr108   2.407       .  S
O96          C98   1.282       .  A
O97        Zr111   2.462   1_545  S
O97          C98   1.289       .  A
C98         C143   1.472       .  S
O99        Zr108   2.435       .  S
O99         C101   1.279       .  A
O100       Zr112   2.444   1_545  S
O100        C101   1.277       .  A
C101        C470   1.479       .  S
O102       Zr105   2.495       .  S
O102        C104   1.296       .  A
O103       Zr111   2.410   1_545  S
O103        C104   1.286       .  A
C104       C1408   1.487       .  S
Zr105       O106   2.435       .  S
Zr105       O107   2.437       .  S
Zr105       O113   2.389       .  S
Zr105       O114   2.386       .  S
Zr105       O117   2.381   1_545  S
Zr105       O115   2.375   1_545  S
O106        H126   0.990       .  S
O106        H131   0.990       .  S
O107        H127   0.990       .  S
Zr108       O109   2.436       .  S
Zr108       O110   2.403       .  S
Zr108       O114   2.365       .  S
Zr108       O113   2.340       .  S
Zr108       O118   2.354   1_545  S
Zr108       O116   2.359   1_545  S
O109        H125   0.990       .  S
O110        H124   0.990       .  S
O110        H134   0.985       .  S
Zr111       O114   2.391   1_565  S
Zr111       O116   2.368       .  S
Zr111       O117   2.410       .  S
Zr112       O113   2.388   1_565  S
Zr112       O115   2.395       .  S
Zr112       O118   2.354       .  S
O113        H121   0.965       .  S
O116        H120   0.965       .  S
O117        H122   0.965       .  S
O135       Zr147   2.523       .  S
O135        C137   1.303       .  A
O136       Zr173   2.378       .  S
O136        C137   1.281       .  A
C137       C1417   1.502       .  S
O138       Zr150   2.422       .  S
O138        C140   1.285       .  A
O139       Zr174   2.432       .  S
O139        C140   1.286       .  A
C140        C473   1.465       .  S
O141       Zr150   2.402       .  S
O141        C143   1.271       .  A
O142       Zr173   2.478       .  S
O142        C143   1.286       .  A
O144       Zr147   2.524       .  S
O144        C146   1.302       .  A
O145       Zr174   2.371       .  S
O145        C146   1.277       .  A
C146       C1012   1.502       .  S
Zr147       O148   2.433       .  S
Zr147       O149   2.437       .  S
Zr147       O153   2.388       .  S
Zr147       O154   2.395       .  S
Zr147       O177   2.370       .  S
Zr147       O179   2.387       .  S
O148        H191   0.990       .  S
O149        H190   0.990       .  S
O149        H194   0.990       .  S
Zr150       O151   2.430       .  S
Zr150       O152   2.421       .  S
Zr150       O154   2.364       .  S
Zr150       O153   2.362       .  S
Zr150       O178   2.368       .  S
Zr150       O180   2.340       .  S
O151        H192   0.989       .  S
O151        H195   0.985       .  S
O152        H185   0.990       .  S
O153       Zr173   2.374       .  S
O154       Zr174   2.379       .  S
O154        H181   0.966       .  S
O155       Zr167   2.518       .  S
O155        C157   1.303       .  A
O156       Zr174   2.348   1_655  S
O156        C157   1.269       .  A
C157        C844   1.492       .  S
O158       Zr170   2.402       .  S
O158        C160   1.283       .  A
O159       Zr173   2.432   1_655  S
O159        C160   1.286       .  A
C160        C701   1.454       .  S
O161       Zr170   2.410       .  S
O161        C163   1.270       .  A
O162       Zr174   2.473   1_655  S
O162        C163   1.283       .  A
C163        C591   1.481       .  S
O164       Zr167   2.524       .  S
O164        C166   1.303       .  A
O165       Zr173   2.364   1_655  S
O165        C166   1.271       .  A
C166       C1348   1.487       .  S
Zr167       O168   2.436       .  S
Zr167       O169   2.434       .  S
Zr167       O175   2.387       .  S
Zr167       O176   2.372       .  S
Zr167       O179   2.383   1_655  S
Zr167       O177   2.379   1_655  S
O168        H188   0.990       .  S
O168        H193   0.990       .  S
O169        H189   0.990       .  S
Zr170       O171   2.432       .  S
Zr170       O172   2.434       .  S
Zr170       O176   2.351       .  S
Zr170       O175   2.359       .  S
Zr170       O180   2.351   1_655  S
Zr170       O178   2.351   1_655  S
O171        H187   0.990       .  S
O172        H186   0.990       .  S
O172        H196   0.988       .  S
Zr173       O176   2.377   1_455  S
Zr173       O178   2.358       .  S
Zr173       O179   2.415       .  S
Zr174       O175   2.389   1_455  S
Zr174       O177   2.401       .  S
Zr174       O180   2.341       .  S
O175        H183   0.965       .  S
O178        H182   0.965       .  S
O179        H184   0.966       .  S
O197       Zr209   2.480       .  S
O197        C199   1.294       .  A
O198       Zr235   2.378       .  S
O198        C199   1.278       .  A
C199       C1489   1.485       .  S
O200       Zr212   2.442       .  S
O200        C202   1.282       .  A
O201       Zr236   2.436       .  S
O201        C202   1.280       .  A
C202        C270   1.474       .  S
O203       Zr212   2.429       .  S
O203        C205   1.283       .  A
O204       Zr235   2.467       .  S
O204        C205   1.286       .  A
C205        C385   1.483       .  S
O206       Zr209   2.469       .  S
O206        C208   1.290       .  A
O207       Zr236   2.401       .  S
O207        C208   1.286       .  A
C208        C928   1.486       .  S
Zr209       O210   2.437       .  S
Zr209       O211   2.437       .  S
Zr209       O215   2.386       .  S
Zr209       O216   2.391       .  S
Zr209       O239   2.377       .  S
Zr209       O241   2.373       .  S
O210        H253   0.990       .  S
O211        H252   0.990       .  S
O211        H256   0.990       .  S
Zr212       O213   2.428       .  S
Zr212       O214   2.422       .  S
Zr212       O216   2.372       .  S
Zr212       O215   2.357       .  S
Zr212       O240   2.380       .  S
Zr212       O242   2.350       .  S
O213        H254   0.989       .  S
O213        H257   0.988       .  S
O214        H247   0.991       .  S
O215       Zr235   2.376       .  S
O216       Zr236   2.388       .  S
O216        H243   0.966       .  S
O217       Zr229   2.507       .  S
O217        C219   1.301       .  A
O218       Zr236   2.358   1_655  S
O218        C219   1.277       .  A
C219        C868   1.495       .  S
O220       Zr232   2.427       .  S
O220        C222   1.286       .  A
O221       Zr235   2.470   1_655  S
O221        C222   1.290       .  A
C222        C538   1.490       .  S
O223       Zr232   2.422       .  S
O223        C225   1.276       .  A
O224       Zr236   2.472   1_655  S
O224        C225   1.285       .  A
C225        C760   1.484       .  S
O226       Zr229   2.497       .  S
O226        C228   1.297       .  A
O227       Zr235   2.359   1_655  S
O227        C228   1.276       .  A
C228       C1336   1.481       .  S
Zr229       O230   2.434       .  S
Zr229       O231   2.435       .  S
Zr229       O237   2.380       .  S
Zr229       O238   2.390       .  S
Zr229       O241   2.381   1_655  S
Zr229       O239   2.375   1_655  S
O230        H250   0.990       .  S
O230        H255   0.990       .  S
O231        H251   0.990       .  S
Zr232       O233   2.433       .  S
Zr232       O234   2.416       .  S
Zr232       O238   2.358       .  S
Zr232       O237   2.358       .  S
Zr232       O242   2.359   1_655  S
Zr232       O240   2.357   1_655  S
O233        H249   0.990       .  S
O234        H248   0.990       .  S
O234        H258   0.988       .  S
Zr235       O238   2.389   1_455  S
Zr235       O240   2.362       .  S
Zr235       O241   2.409       .  S
Zr236       O237   2.400   1_455  S
Zr236       O239   2.395       .  S
Zr236       O242   2.364       .  S
O237        H245   0.966       .  S
O240        H244   0.965       .  S
O241        H246   0.965       .  S
O259       Zr271   2.389       .  S
O259        C261   1.278       .  A
O260       Zr297   2.480   1_554  S
O260        C261   1.294       .  A
C261        C394   1.479       .  S
O262       Zr274   2.530       .  S
O262        C264   1.304       .  A
O263       Zr298   2.369       .  S
O263        C264   1.278       .  A
C264        C937   1.497       .  S
O265       Zr274   2.512       .  S
O265        C267   1.301       .  A
O266       Zr297   2.401   1_554  S
O266        C267   1.282       .  A
C267       C1141   1.498       .  S
O268       Zr271   2.379       .  S
O268        C270   1.275       .  A
O269       Zr298   2.477       .  S
O269        C270   1.293       .  A
Zr271       O272   2.400       .  S
Zr271       O273   2.437       .  S
Zr271       O277   2.360       .  S
Zr271       O278   2.369       .  S
Zr271       O301   2.345   1_554  S
Zr271       O303   2.349   1_554  S
O272        H315   0.990       .  S
O273        H314   0.990       .  S
O273        H318   0.990       .  S
Zr274       O275   2.434       .  S
Zr274       O276   2.438       .  S
Zr274       O278   2.391       .  S
Zr274       O277   2.396       .  S
Zr274       O302   2.374       .  S
Zr274       O304   2.372       .  S
O275        H316   0.990       .  S
O275        H319   0.990       .  S
O276        H309   0.990       .  S
O277       Zr297   2.375   1_554  S
O278       Zr298   2.374       .  S
O278        H305   0.966       .  S
O279       Zr291   2.438       .  S
O279        C281   1.281       .  A
O280       Zr298   2.445   1_556  S
O280        C281   1.277       .  A
C281        C642   1.481       .  S
O282       Zr294   2.509       .  S
O282        C284   1.300       .  A
O283       Zr297   2.388       .  S
O283        C284   1.277       .  A
C284       C1096   1.504       .  S
O285       Zr294   2.506       .  S
O285        C287   1.301       .  A
O286       Zr298   2.365   1_556  S
O286        C287   1.276       .  A
C287       C1000   1.480       .  S
O288       Zr291   2.425       .  S
O288        C290   1.284       .  A
O289       Zr297   2.465       .  S
O289        C290   1.292       .  A
Zr291       O292   2.432       .  S
Zr291       O293   2.418       .  S
Zr291       O299   2.360       .  S
Zr291       O300   2.366       .  S
Zr291       O303   2.374       .  S
Zr291       O301   2.366       .  S
O292        H312   0.989       .  S
O292        H317   0.990       .  S
O293        H313   0.990       .  S
Zr294       O295   2.435       .  S
Zr294       O296   2.437       .  S
Zr294       O300   2.392       .  S
Zr294       O299   2.386       .  S
Zr294       O304   2.380   1_556  S
Zr294       O302   2.378   1_556  S
O295        H311   0.990       .  S
O296        H310   0.990       .  S
O296        H320   0.990       .  S
Zr297       O300   2.390       .  S
Zr297       O302   2.411   1_556  S
Zr297       O303   2.359       .  S
Zr298       O299   2.400   1_554  S
Zr298       O301   2.365   1_554  S
Zr298       O304   2.405       .  S
O299        H307   0.965       .  S
O302        H306   0.965       .  S
O303        H308   0.965       .  S
O321       Zr333   2.405       .  S
O321        C323   1.277       .  A
O322       Zr359   2.464       .  S
O322        C323   1.286       .  A
C323        C414   1.475       .  S
O324       Zr336   2.489       .  S
O324        C326   1.296       .  A
O325       Zr360   2.420       .  S
O325        C326   1.287       .  A
C326        C952   1.488       .  S
O327       Zr336   2.503       .  S
O327        C329   1.298       .  A
O328       Zr359   2.364       .  S
O328        C329   1.277       .  A
C329       C1429   1.476       .  S
O330       Zr333   2.396       .  S
O330        C332   1.280       .  A
O331       Zr360   2.456       .  S
O331        C332   1.291       .  A
C332        C450   1.465       .  S
Zr333       O334   2.423       .  S
Zr333       O335   2.437       .  S
Zr333       O339   2.364       .  S
Zr333       O340   2.380       .  S
Zr333       O363   2.341       .  S
Zr333       O365   2.362       .  S
O334        H377   0.990       .  S
O335        H376   0.990       .  S
O335        H380   0.989       .  S
Zr336       O337   2.436       .  S
Zr336       O338   2.436       .  S
Zr336       O340   2.389       .  S
Zr336       O339   2.379       .  S
Zr336       O364   2.379       .  S
Zr336       O366   2.385       .  S
O337        H378   0.990       .  S
O337        H381   0.990       .  S
O338        H371   0.990       .  S
O339       Zr359   2.370       .  S
O340       Zr360   2.389       .  S
O340        H367   0.966       .  S
O341       Zr353   2.420       .  S
O341        C343   1.275       .  A
O342       Zr360   2.483   1_655  S
O342        C343   1.288       .  A
C343        C580   1.486       .  S
O344       Zr356   2.529       .  S
O344        C346   1.306       .  A
O345       Zr359   2.360   1_655  S
O345        C346   1.275       .  A
C346       C1369   1.495       .  S
O347       Zr356   2.523       .  S
O347        C349   1.303       .  A
O348       Zr360   2.367   1_655  S
O348        C349   1.273       .  A
C349        C892   1.507       .  S
O350       Zr353   2.410       .  S
O350        C352   1.275       .  A
O351       Zr359   2.439   1_655  S
O351        C352   1.281       .  A
C352        C509   1.460       .  S
Zr353       O354   2.419       .  S
Zr353       O355   2.425       .  S
Zr353       O361   2.359       .  S
Zr353       O362   2.351       .  S
Zr353       O365   2.356   1_655  S
Zr353       O363   2.356   1_655  S
O354        H374   0.989       .  S
O354        H379   0.985       .  S
O355        H375   0.990       .  S
Zr356       O357   2.435       .  S
Zr356       O358   2.435       .  S
Zr356       O362   2.361       .  S
Zr356       O361   2.389       .  S
Zr356       O366   2.382   1_655  S
Zr356       O364   2.391   1_655  S
O357        H373   0.990       .  S
O358        H372   0.990       .  S
O358        H382   0.990       .  S
Zr359       O362   2.377   1_455  S
Zr359       O364   2.414       .  S
Zr359       O365   2.369       .  S
Zr360       O361   2.397   1_455  S
Zr360       O363   2.352       .  S
Zr360       O366   2.405       .  S
O361        H369   0.965       .  S
O364        H368   0.966       .  S
O365        H370   0.966       .  S
O383       Zr395   2.368       .  S
O383        C385   1.275       .  A
O384       Zr421   2.507       .  S
O384        C385   1.299       .  A
O386       Zr398   2.462       .  S
O386        C388   1.290       .  A
O387       Zr422   2.443       .  S
O387        C388   1.292       .  A
C388       C1132   1.485       .  S
O389       Zr398   2.494       .  S
O389        C391   1.297       .  A
O390       Zr421   2.382       .  S
O390        C391   1.275       .  A
C391       C1501   1.496       .  S
O392       Zr395   2.429       .  S
O392        C394   1.278       .  A
O393       Zr422   2.448       .  S
O393        C394   1.282       .  A
Zr395       O396   2.422       .  S
Zr395       O397   2.429       .  S
Zr395       O401   2.370       .  S
Zr395       O402   2.358       .  S
Zr395       O425   2.330       .  S
Zr395       O427   2.372       .  S
O396        H439   0.990       .  S
O397        H438   0.989       .  S
O397        H442   0.990       .  S
Zr398       O399   2.435       .  S
Zr398       O400   2.435       .  S
Zr398       O402   2.397       .  S
Zr398       O401   2.377       .  S
Zr398       O426   2.359       .  S
Zr398       O428   2.381       .  S
O399        H440   0.990       .  S
O399        H443   0.990       .  S
O400        H433   0.990       .  S
O401       Zr421   2.388       .  S
O402       Zr422   2.394       .  S
O402        H429   0.966       .  S
O403       Zr415   2.414       .  S
O403        C405   1.274       .  A
O404       Zr422   2.489   1_545  S
O404        C405   1.290       .  A
C405        C453   1.490       .  S
O406       Zr418   2.468       .  S
O406        C408   1.292       .  A
O407       Zr421   2.460   1_545  S
O407        C408   1.295       .  A
C408       C1441   1.490       .  S
O409       Zr418   2.504       .  S
O409        C411   1.300       .  A
O410       Zr422   2.339   1_545  S
O410        C411   1.268       .  A
C411       C1252   1.481       .  S
O412       Zr415   2.384       .  S
O412        C414   1.277       .  A
O413       Zr421   2.465   1_545  S
O413        C414   1.289       .  A
Zr415       O416   2.436       .  S
Zr415       O417   2.424       .  S
Zr415       O423   2.358       .  S
Zr415       O424   2.364       .  S
Zr415       O427   2.362   1_545  S
Zr415       O425   2.350   1_545  S
O416        H436   0.990       .  S
O416        H441   0.989       .  S
O417        H437   0.990       .  S
Zr418       O419   2.434       .  S
Zr418       O420   2.435       .  S
Zr418       O424   2.394       .  S
Zr418       O423   2.369       .  S
Zr418       O428   2.366   1_545  S
Zr418       O426   2.385   1_545  S
O419        H435   0.990       .  S
O420        H434   0.990       .  S
O420        H444   0.990       .  S
Zr421       O424   2.398   1_565  S
Zr421       O426   2.406       .  S
Zr421       O427   2.371       .  S
Zr422       O423   2.398   1_565  S
Zr422       O425   2.358       .  S
Zr422       O428   2.402       .  S
O423        H431   0.965       .  S
O426        H430   0.964       .  S
O427        H432   0.966       .  S
O445       Zr457   2.488       .  S
O445        C447   1.296       .  A
O446       Zr483   2.399       .  S
O446        C447   1.282       .  A
C447       C1264   1.497       .  S
O448       Zr460   2.437       .  S
O448        C450   1.279       .  A
O449       Zr484   2.425   1_554  S
O449        C450   1.275       .  A
O451       Zr460   2.439       .  S
O451        C453   1.288       .  A
O452       Zr483   2.471       .  S
O452        C453   1.291       .  A
O454       Zr457   2.515       .  S
O454        C456   1.300       .  A
O455       Zr484   2.366   1_554  S
O455        C456   1.276       .  A
C456        C964   1.500       .  S
Zr457       O458   2.435       .  S
Zr457       O459   2.436       .  S
Zr457       O463   2.400       .  S
Zr457       O464   2.376       .  S
Zr457       O487   2.379   1_554  S
Zr457       O489   2.385   1_554  S
O458        H501   0.990       .  S
O459        H500   0.989       .  S
O459        H504   0.990       .  S
Zr460       O461   2.433       .  S
Zr460       O462   2.417       .  S
Zr460       O464   2.370       .  S
Zr460       O463   2.360       .  S
Zr460       O488   2.376       .  S
Zr460       O490   2.358       .  S
O461        H502   0.989       .  S
O461        H505   0.990       .  S
O462        H495   0.990       .  S
O463       Zr483   2.391       .  S
O464       Zr484   2.395   1_554  S
O464        H491   0.965       .  S
O465       Zr477   2.512       .  S
O465        C467   1.300       .  A
O466       Zr484   2.357       .  S
O466        C467   1.267       .  A
C467       C1021   1.491       .  S
O468       Zr480   2.388       .  S
O468        C470   1.277       .  A
O469       Zr483   2.482   1_556  S
O469        C470   1.294       .  A
O471       Zr480   2.417       .  S
O471        C473   1.274       .  A
O472       Zr484   2.431       .  S
O472        C473   1.278       .  A
O474       Zr477   2.499       .  S
O474        C476   1.298       .  A
O475       Zr483   2.391   1_556  S
O475        C476   1.279       .  A
C476       C1204   1.498       .  S
Zr477       O478   2.434       .  S
Zr477       O479   2.433       .  S
Zr477       O485   2.377       .  S
Zr477       O486   2.391       .  S
Zr477       O489   2.380       .  S
Zr477       O487   2.379       .  S
O478        H498   0.990       .  S
O478        H503   0.990       .  S
O479        H499   0.990       .  S
Zr480       O481   2.424       .  S
Zr480       O482   2.440       .  S
Zr480       O486   2.374       .  S
Zr480       O485   2.363       .  S
Zr480       O490   2.344   1_556  S
Zr480       O488   2.369   1_556  S
O481        H497   0.989       .  S
O482        H496   0.990       .  S
O482        H506   0.989       .  S
Zr483       O486   2.375   1_554  S
Zr483       O488   2.363       .  S
Zr483       O489   2.414   1_554  S
Zr484       O485   2.385       .  S
Zr484       O487   2.398       .  S
Zr484       O490   2.368   1_556  S
O485        H493   0.966       .  S
O488        H492   0.966       .  S
O489        H494   0.965       .  S
O507       Zr519   2.403       .  S
O507        C509   1.283       .  A
O508       Zr545   2.444   1_545  S
O508        C509   1.289       .  A
O510       Zr522   2.476       .  S
O510        C512   1.294       .  A
O511       Zr546   2.382   1_545  S
O511        C512   1.278       .  A
C512       C1228   1.488       .  S
O513       Zr522   2.477       .  S
O513        C515   1.293       .  A
O514       Zr545   2.461   1_545  S
O514        C515   1.295       .  A
C515       C1381   1.496       .  S
O516       Zr519   2.426       .  S
O516        C518   1.275       .  A
O517       Zr546   2.470   1_545  S
O517        C518   1.282       .  A
C518        C571   1.483       .  S
Zr519       O520   2.418       .  S
Zr519       O521   2.437       .  S
Zr519       O525   2.373       .  S
Zr519       O526   2.361       .  S
Zr519       O549   2.346   1_545  S
Zr519       O551   2.339   1_545  S
O520        H563   0.990       .  S
O521        H562   0.990       .  S
O521        H566   0.989       .  S
Zr522       O523   2.435       .  S
Zr522       O524   2.435       .  S
Zr522       O526   2.381       .  S
Zr522       O525   2.384       .  S
Zr522       O550   2.377   1_545  S
Zr522       O552   2.377   1_545  S
O523        H564   0.990       .  S
O523        H567   0.990       .  S
O524        H557   0.990       .  S
O525       Zr545   2.386   1_545  S
O526       Zr546   2.393   1_545  S
O526        H553   0.966       .  S
O527       Zr539   2.403       .  S
O527        C529   1.283       .  A
O528       Zr546   2.442       .  S
O528        C529   1.286       .  A
C529        C763   1.467       .  S
O530       Zr542   2.520       .  S
O530        C532   1.303       .  A
O531       Zr545   2.343       .  S
O531        C532   1.268       .  A
C532       C1324   1.490       .  S
O533       Zr542   2.505       .  S
O533        C535   1.296       .  A
O534       Zr546   2.383       .  S
O534        C535   1.277       .  A
C535       C1108   1.489       .  S
O536       Zr539   2.388       .  S
O536        C538   1.270       .  A
O537       Zr545   2.522       .  S
O537        C538   1.297       .  A
Zr539       O540   2.428       .  S
Zr539       O541   2.428       .  S
Zr539       O547   2.361       .  S
Zr539       O548   2.358       .  S
Zr539       O551   2.374       .  S
Zr539       O549   2.340       .  S
O540        H560   0.989       .  S
O540        H565   0.987       .  S
O541        H561   0.990       .  S
Zr542       O543   2.434       .  S
Zr542       O544   2.435       .  S
Zr542       O548   2.383       .  S
Zr542       O547   2.389       .  S
Zr542       O552   2.387       .  S
Zr542       O550   2.366       .  S
O543        H559   0.990       .  S
O544        H558   0.990       .  S
O544        H568   0.990       .  S
Zr545       O548   2.381       .  S
Zr545       O550   2.409       .  S
Zr545       O551   2.358       .  S
Zr546       O547   2.394       .  S
Zr546       O549   2.356       .  S
Zr546       O552   2.404       .  S
O547        H555   0.966       .  S
O550        H554   0.964       .  S
O551        H556   0.965       .  S
O569       Zr581   2.399       .  S
O569        C571   1.280       .  A
O570       Zr607   2.493   1_554  S
O570        C571   1.296       .  A
O572       Zr584   2.469       .  S
O572        C574   1.293       .  A
O573       Zr608   2.385   1_554  S
O573        C574   1.280       .  A
C574        C904   1.484       .  S
O575       Zr584   2.488       .  S
O575        C577   1.295       .  A
O576       Zr607   2.393   1_554  S
O576        C577   1.284       .  A
C577       C1240   1.502       .  S
O578       Zr581   2.417       .  S
O578        C580   1.284       .  A
O579       Zr608   2.473   1_554  S
O579        C580   1.291       .  A
Zr581       O582   2.434       .  S
Zr581       O583   2.419       .  S
Zr581       O587   2.360       .  S
Zr581       O588   2.342       .  S
Zr581       O611   2.356       .  S
Zr581       O613   2.368       .  S
O582        H625   0.990       .  S
O583        H624   0.990       .  S
O583        H628   0.986       .  S
Zr584       O585   2.434       .  S
Zr584       O586   2.435       .  S
Zr584       O588   2.390       .  S
Zr584       O587   2.385       .  S
Zr584       O612   2.363   1_554  S
Zr584       O614   2.376   1_554  S
O585        H626   0.990       .  S
O585        H629   0.990       .  S
O586        H619   0.990       .  S
O587       Zr607   2.380   1_554  S
O588       Zr608   2.377   1_554  S
O588        H615   0.966       .  S
O589       Zr601   2.432       .  S
O589        C591   1.287       .  A
O590       Zr608   2.464       .  S
O590        C591   1.290       .  A
O592       Zr604   2.495       .  S
O592        C594   1.298       .  A
O593       Zr607   2.401       .  S
O593        C594   1.284       .  A
C594       C1180   1.480       .  S
O595       Zr604   2.534       .  S
O595        C597   1.303       .  A
O596       Zr608   2.350       .  S
O596        C597   1.266       .  A
C597        C856   1.515       .  S
O598       Zr601   2.421       .  S
O598        C600   1.285       .  A
O599       Zr607   2.461       .  S
O599        C600   1.290       .  A
C600        C698   1.481       .  S
Zr601       O602   2.393       .  S
Zr601       O603   2.435       .  S
Zr601       O609   2.370       .  S
Zr601       O610   2.362       .  S
Zr601       O613   2.351   1_556  S
Zr601       O611   2.353   1_556  S
O602        H622   0.989       .  S
O602        H627   0.984       .  S
O603        H623   0.990       .  S
Zr604       O605   2.436       .  S
Zr604       O606   2.434       .  S
Zr604       O610   2.391       .  S
Zr604       O609   2.378       .  S
Zr604       O614   2.370       .  S
Zr604       O612   2.380       .  S
O605        H621   0.990       .  S
O606        H620   0.990       .  S
O606        H630   0.990       .  S
Zr607       O610   2.384       .  S
Zr607       O612   2.412       .  S
Zr607       O613   2.367   1_556  S
Zr608       O609   2.384       .  S
Zr608       O611   2.353   1_556  S
Zr608       O614   2.401       .  S
O609        H617   0.965       .  S
O612        H616   0.964       .  S
O613        H618   0.966       .  S
O631       Zr643   2.403       .  S
O631        C633   1.281       .  A
O632       Zr669   2.467       .  S
O632        C633   1.289       .  A
O634       Zr646   2.469       .  S
O634        C636   1.292       .  A
O635       Zr670   2.436       .  S
O635        C636   1.290       .  A
C636        C988   1.484       .  S
O637       Zr646   2.464       .  S
O637        C639   1.291       .  A
O638       Zr669   2.386       .  S
O638        C639   1.282       .  A
C639       C1465   1.480       .  S
O640       Zr643   2.379       .  S
O640        C642   1.278       .  A
O641       Zr670   2.504       .  S
O641        C642   1.301       .  A
Zr643       O644   2.416       .  S
Zr643       O645   2.436       .  S
Zr643       O649   2.344       .  S
Zr643       O650   2.375       .  S
Zr643       O673   2.349       .  S
Zr643       O675   2.355       .  S
O644        H687   0.990       .  S
O645        H686   0.990       .  S
O645        H690   0.990       .  S
Zr646       O647   2.436       .  S
Zr646       O648   2.433       .  S
Zr646       O650   2.377       .  S
Zr646       O649   2.382       .  S
Zr646       O674   2.375       .  S
Zr646       O676   2.374       .  S
O647        H688   0.990       .  S
O647        H691   0.990       .  S
O648        H681   0.990       .  S
O649       Zr669   2.372       .  S
O650       Zr670   2.399       .  S
O650        H677   0.966       .  S
O651       Zr663   2.428       .  S
O651        C653   1.277       .  A
O652       Zr670   2.497   1_655  S
O652        C653   1.290       .  A
C653        C783   1.498       .  S
O654       Zr666   2.513       .  S
O654        C656   1.300       .  A
O655       Zr669   2.356   1_655  S
O655        C656   1.276       .  A
C656       C1300   1.500       .  S
O657       Zr666   2.463       .  S
O657        C659   1.292       .  A
O658       Zr670   2.449   1_655  S
O658        C659   1.293       .  A
C659        C820   1.482       .  S
O660       Zr663   2.416       .  S
O660        C662   1.287       .  A
O661       Zr669   2.480   1_655  S
O661        C662   1.289       .  A
C662        C718   1.499       .  S
Zr663       O664   2.432       .  S
Zr663       O665   2.414       .  S
Zr663       O671   2.359       .  S
Zr663       O672   2.353       .  S
Zr663       O675   2.370   1_655  S
Zr663       O673   2.353   1_655  S
O664        H684   0.989       .  S
O664        H689   0.989       .  S
O665        H685   0.991       .  S
Zr666       O667   2.434       .  S
Zr666       O668   2.436       .  S
Zr666       O672   2.378       .  S
Zr666       O671   2.393       .  S
Zr666       O676   2.388   1_655  S
Zr666       O674   2.360   1_655  S
O667        H683   0.990       .  S
O668        H682   0.990       .  S
O668        H692   0.990       .  S
Zr669       O672   2.386   1_455  S
Zr669       O674   2.413       .  S
Zr669       O675   2.361       .  S
Zr670       O671   2.409   1_455  S
Zr670       O673   2.373       .  S
Zr670       O676   2.412       .  S
O671        H679   0.965       .  S
O674        H678   0.964       .  S
O675        H680   0.966       .  S
O693       Zr705   2.483       .  S
O693        C695   1.296       .  A
O694       Zr731   2.445   1_545  S
O694        C695   1.292       .  A
C695       C1360   1.505       .  S
O696       Zr708   2.425       .  S
O696        C698   1.276       .  A
O697       Zr732   2.464   1_545  S
O697        C698   1.285       .  A
O699       Zr708   2.401       .  S
O699        C701   1.276       .  A
O700       Zr731   2.442   1_545  S
O700        C701   1.284       .  A
O702       Zr705   2.517       .  S
O702        C704   1.302       .  A
O703       Zr732   2.330   1_545  S
O703        C704   1.271       .  A
C704       C1165   1.483       .  S
Zr705       O706   2.437       .  S
Zr705       O707   2.435       .  S
Zr705       O711   2.394       .  S
Zr705       O712   2.380       .  S
Zr705       O735   2.362   1_545  S
Zr705       O737   2.395   1_545  S
O706        H749   0.990       .  S
O707        H748   0.989       .  S
O707        H752   0.990       .  S
Zr708       O709   2.435       .  S
Zr708       O710   2.418       .  S
Zr708       O712   2.367       .  S
Zr708       O711   2.349       .  S
Zr708       O736   2.384   1_545  S
Zr708       O738   2.346   1_545  S
O709        H750   0.989       .  S
O709        H753   0.989       .  S
O710        H743   0.990       .  S
O711       Zr731   2.387   1_545  S
O712       Zr732   2.384   1_545  S
O712        H739   0.966       .  S
O713       Zr725   2.489       .  S
O713        C715   1.296       .  A
O714       Zr732   2.364       .  S
O714        C715   1.279       .  A
C715       C1060   1.479       .  S
O716       Zr728   2.365       .  S
O716        C718   1.273       .  A
O717       Zr731   2.515       .  S
O717        C718   1.298       .  A
O719       Zr728   2.417       .  S
O719        C721   1.272       .  A
O720       Zr732   2.429       .  S
O720        C721   1.276       .  A
C721        C780   1.458       .  S
O722       Zr725   2.508       .  S
O722        C724   1.300       .  A
O723       Zr731   2.376       .  S
O723        C724   1.279       .  A
C724       C1312   1.489       .  S
Zr725       O726   2.434       .  S
Zr725       O727   2.434       .  S
Zr725       O733   2.393       .  S
Zr725       O734   2.376       .  S
Zr725       O737   2.379       .  S
Zr725       O735   2.380       .  S
O726        H746   0.990       .  S
O726        H751   0.990       .  S
O727        H747   0.990       .  S
Zr728       O729   2.428       .  S
Zr728       O730   2.427       .  S
Zr728       O734   2.363       .  S
Zr728       O733   2.344       .  S
Zr728       O738   2.340       .  S
Zr728       O736   2.359       .  S
O729        H745   0.990       .  S
O730        H744   0.991       .  S
O730        H754   0.988       .  S
Zr731       O734   2.382       .  S
Zr731       O736   2.366       .  S
Zr731       O737   2.421       .  S
Zr732       O733   2.390       .  S
Zr732       O735   2.398       .  S
Zr732       O738   2.348       .  S
O733        H741   0.966       .  S
O736        H740   0.965       .  S
O737        H742   0.965       .  S
O755       Zr767   2.551       .  S
O755        C757   1.309       .  A
O756       Zr793   2.366   1_554  S
O756        C757   1.274       .  A
C757       C1120   1.516       .  S
O758       Zr770   2.423       .  S
O758        C760   1.285       .  A
O759       Zr794   2.470   1_554  S
O759        C760   1.292       .  A
O761       Zr770   2.398       .  S
O761        C763   1.273       .  A
O762       Zr793   2.468   1_554  S
O762        C763   1.287       .  A
O764       Zr767   2.509       .  S
O764        C766   1.300       .  A
O765       Zr794   2.397   1_554  S
O765        C766   1.279       .  A
C766        C880   1.505       .  S
Zr767       O768   2.434       .  S
Zr767       O769   2.436       .  S
Zr767       O773   2.384       .  S
Zr767       O774   2.399       .  S
Zr767       O797   2.386   1_554  S
Zr767       O799   2.361   1_554  S
O768        H811   0.990       .  S
O769        H810   0.990       .  S
O769        H814   0.990       .  S
Zr770       O771   2.426       .  S
Zr770       O772   2.432       .  S
Zr770       O774   2.363       .  S
Zr770       O773   2.374       .  S
Zr770       O798   2.367   1_554  S
Zr770       O800   2.361   1_554  S
O771        H812   0.990       .  S
O771        H815   0.989       .  S
O772        H805   0.990       .  S
O773       Zr793   2.374   1_554  S
O774       Zr794   2.386   1_554  S
O774        H801   0.966       .  S
O775       Zr787   2.496       .  S
O775        C777   1.297       .  A
O776       Zr794   2.378       .  S
O776        C777   1.278       .  A
C777        C832   1.491       .  S
O778       Zr790   2.424       .  S
O778        C780   1.285       .  A
O779       Zr793   2.423       .  S
O779        C780   1.284       .  A
O781       Zr790   2.408       .  S
O781        C783   1.282       .  A
O782       Zr794   2.506       .  S
O782        C783   1.299       .  A
O784       Zr787   2.512       .  S
O784        C786   1.300       .  A
O785       Zr793   2.374       .  S
O785        C786   1.279       .  A
C786       C1072   1.500       .  S
Zr787       O788   2.434       .  S
Zr787       O789   2.433       .  S
Zr787       O795   2.393       .  S
Zr787       O796   2.379       .  S
Zr787       O799   2.374       .  S
Zr787       O797   2.380       .  S
O788        H808   0.990       .  S
O788        H813   0.990       .  S
O789        H809   0.990       .  S
Zr790       O791   2.409       .  S
Zr790       O792   2.437       .  S
Zr790       O796   2.362       .  S
Zr790       O795   2.361       .  S
Zr790       O800   2.368       .  S
Zr790       O798   2.332       .  S
O791        H807   0.990       .  S
O792        H806   0.990       .  S
O792        H816   0.990       .  S
Zr793       O796   2.377       .  S
Zr793       O798   2.355       .  S
Zr793       O799   2.397       .  S
Zr794       O795   2.389       .  S
Zr794       O797   2.411       .  S
Zr794       O800   2.356       .  S
O795        H803   0.966       .  S
O798        H802   0.965       .  S
O799        H804   0.965       .  S
C817        C818   1.416       .  A
C817        C822   1.419       .  A
C818        C819   1.403       .  A
C818        H827   1.072       .  S
C819        C820   1.404       .  A
C819        S823   1.804       .  S
C820        C821   1.396       .  A
C821        C822   1.407       .  A
C821        H828   1.069       .  S
C822        S824   1.798       .  S
S823        H826   1.402       .  S
S824        H825   1.408       .  S
C829        C830   1.396       .  A
C829        C834   1.424       .  A
C830        C831   1.388       .  A
C830        H839   1.068       .  S
C831        C832   1.418       .  A
C831        S835   1.805       .  S
C832        C833   1.406       .  A
C833        C834   1.414       .  A
C833        H840   1.083       .  S
C834        S836   1.798       .  S
S835        H838   1.406       .  S
S836        H837   1.405       .  S
C841        C842   1.391       .  A
C841        C846   1.418       .  A
C842        C843   1.393       .  A
C842        H851   1.082       .  S
C843        C844   1.431       .  A
C843        S847   1.817       .  S
C844        C845   1.402       .  A
C845        C846   1.406       .  A
C845        H852   1.083       .  S
C846        S848   1.805       .  S
S847        H850   1.406       .  S
S848        H849   1.400       .  S
C853        C854   1.388       .  A
C853        C858   1.423       .  A
C854        C855   1.388       .  A
C854        H863   1.076       .  S
C855        C856   1.436       .  A
C855        S859   1.806       .  S
C856        C857   1.409       .  A
C857        C858   1.419       .  A
C857        H864   1.083       .  S
C858        S860   1.803       .  S
S859        H862   1.405       .  S
S860        H861   1.398       .  S
C865        C866   1.408       .  A
C865        C870   1.408       .  A
C866        C867   1.407       .  A
C866        H875   1.083       .  S
C867        C868   1.413       .  A
C867        S871   1.798       .  S
C868        C869   1.414       .  A
C869        C870   1.388       .  A
C869        H876   1.084       .  S
C870        S872   1.811       .  S
S871        H874   1.407       .  S
S872        H873   1.394       .  S
C877        C878   1.389       .  A
C877        C882   1.418       .  A
C878        C879   1.391       .  A
C878        H887   1.077       .  S
C879        C880   1.426       .  A
C879        S883   1.804       .  S
C880        C881   1.410       .  A
C881        C882   1.416       .  A
C881        H888   1.083       .  S
C882        S884   1.802       .  S
S883        H886   1.406   1_554  S
S884        H885   1.405       .  S
C889        C890   1.391       .  A
C889        C894   1.413       .  A
C890        C891   1.389       .  A
C890        H899   1.075       .  S
C891        C892   1.434       .  A
C891        S895   1.819   1_655  S
C892        C893   1.410       .  A
C893        C894   1.418       .  A
C893        H900   1.082       .  S
C894        S896   1.802       .  S
S895        H898   1.407       .  S
S896        H897   1.407       .  S
C901        C902   1.393       .  A
C901        C906   1.416       .  A
C902        C903   1.383       .  A
C902        H911   1.080       .  S
C903        C904   1.416       .  A
C903        S907   1.804       .  S
C904        C905   1.408       .  A
C905        C906   1.408       .  A
C905        H912   1.083       .  S
C906        S908   1.802       .  S
S907        H910   1.408       .  S
S908        H909   1.404       .  S
C913        C914   1.402       .  A
C913        C918   1.416       .  A
C914        C915   1.404   1_554  A
C914        H923   1.075       .  S
C915        C916   1.417       .  A
C915        S919   1.805       .  S
C916        C917   1.416       .  A
C917        C918   1.429   1_556  A
C917        H924   1.077       .  S
C918        S920   1.801       .  S
S919        H922   1.406   1_556  S
S920        H921   1.407       .  S
C925        C926   1.414       .  A
C925        C930   1.413       .  A
C926        C927   1.414       .  A
C926        H935   1.084       .  S
C927        C928   1.414       .  A
C927        S931   1.796       .  S
C928        C929   1.396       .  A
C929        C930   1.381       .  A
C929        H936   1.085       .  S
C930        S932   1.785       .  S
S931        H934   1.405       .  S
S932        H933   1.382       .  S
C937        C938   1.409       .  A
C937        C942   1.412       .  A
C938        C939   1.423       .  A
C938        H947   1.083       .  S
C939        C940   1.427       .  A
C939        S943   1.800       .  S
C940        C941   1.402       .  A
C941        C942   1.388       .  A
C941        H948   1.075       .  S
C942        S944   1.800       .  S
S943        H946   1.407       .  S
S944        H945   1.407       .  S
C949        C950   1.411       .  A
C949        C954   1.430       .  A
C950        C951   1.395       .  A
C950        H959   1.070       .  S
C951        C952   1.399       .  A
C951        S955   1.797       .  S
C952        C953   1.402       .  A
C953        C954   1.416       .  A
C953        H960   1.083       .  S
C954        S956   1.801       .  S
S955        H958   1.407       .  S
S956        H957   1.407       .  S
C961        C962   1.414       .  A
C961        C966   1.409       .  A
C962        C963   1.413       .  A
C962        H971   1.083       .  S
C963        C964   1.412       .  A
C963        S967   1.795       .  S
C964        C965   1.410       .  A
C965        C966   1.395       .  A
C965        H972   1.082       .  S
C966        S968   1.802       .  S
S967        H970   1.406       .  S
S968        H969   1.406       .  S
C973        C974   1.395       .  A
C973        C978   1.420       .  A
C974        C975   1.395   1_655  A
C974        H983   1.076       .  S
C975        C976   1.428       .  A
C975        S979   1.800       .  S
C976        C977   1.421       .  A
C977        C978   1.429   1_455  A
C977        H984   1.083       .  S
C978        S980   1.801       .  S
S979        H982   1.377       .  S
S980        H981   1.403       .  S
C985        C986   1.411       .  A
C985        C990   1.427       .  A
C986        C987   1.401       .  A
C986        H995   1.073       .  S
C987        C988   1.402       .  A
C987        S991   1.791       .  S
C988        C989   1.399       .  A
C989        C990   1.410       .  A
C989        H996   1.083       .  S
C990        S992   1.799       .  S
S991        H994   1.404       .  S
S992        H993   1.407       .  S
C997        C998   1.397       .  A
C997       C1002   1.423       .  A
C998        C999   1.392       .  A
C998       H1007   1.083       .  S
C999       C1000   1.420       .  A
C999       S1003   1.806       .  S
C1000      C1001   1.399       .  A
C1001      C1002   1.403       .  A
C1001      H1008   1.084       .  S
C1002      S1004   1.801       .  S
S1003      H1006   1.407       .  S
S1004      H1005   1.401       .  S
C1009      C1010   1.412       .  A
C1009      C1014   1.407       .  A
C1010      C1011   1.412       .  A
C1010      H1019   1.083       .  S
C1011      C1012   1.412       .  A
C1011      S1015   1.796       .  S
C1012      C1013   1.413       .  A
C1013      C1014   1.394       .  A
C1013      H1020   1.076       .  S
C1014      S1016   1.812       .  S
S1015      H1018   1.406       .  S
S1016      H1017   1.400       .  S
C1021      C1022   1.403       .  A
C1021      C1026   1.432       .  A
C1022      C1023   1.405       .  A
C1022      H1031   1.083       .  S
C1023      C1024   1.419       .  A
C1023      S1027   1.807       .  S
C1024      C1025   1.387       .  A
C1025      C1026   1.392       .  A
C1025      H1032   1.081       .  S
C1026      S1028   1.811       .  S
S1027      H1030   1.401       .  S
S1028      H1029   1.406       .  S
C1033      C1034   1.402       .  A
C1033      C1038   1.428       .  A
C1034      C1035   1.407   1_556  A
C1034      H1043   1.082       .  S
C1035      C1036   1.428       .  A
C1035      S1039   1.796       .  S
C1036      C1037   1.414       .  A
C1037      C1038   1.423   1_554  A
C1037      H1044   1.075       .  S
C1038      S1040   1.802       .  S
S1039      H1042   1.407   1_554  S
S1040      H1041   1.395       .  S
C1045      C1046   1.419   1_655  A
C1045      C1050   1.427   1_655  A
C1046      C1047   1.420       .  A
C1046      H1055   1.081   1_455  S
C1047      C1048   1.422       .  A
C1047      S1051   1.801       .  S
C1048      C1049   1.404       .  A
C1049      C1050   1.415       .  A
C1049      H1056   1.081       .  S
C1050      S1052   1.793   1_455  S
S1051      H1054   1.406       .  S
S1052      H1053   1.407   1_655  S
C1057      C1058   1.412       .  A
C1057      C1062   1.409       .  A
C1058      C1059   1.406       .  A
C1058      H1067   1.083       .  S
C1059      C1060   1.409       .  A
C1059      S1063   1.798       .  S
C1060      C1061   1.406       .  A
C1061      C1062   1.383       .  A
C1061      H1068   1.084       .  S
C1062      S1064   1.803       .  S
S1063      H1066   1.405       .  S
S1064      H1065   1.384       .  S
C1069      C1070   1.414       .  A
C1069      C1074   1.410       .  A
C1070      C1071   1.413       .  A
C1070      H1079   1.083       .  S
C1071      C1072   1.412       .  A
C1071      S1075   1.798       .  S
C1072      C1073   1.411       .  A
C1073      C1074   1.389       .  A
C1073      H1080   1.082       .  S
C1074      S1076   1.804       .  S
S1075      H1078   1.407       .  S
S1076      H1077   1.383       .  S
C1081      C1082   1.388       .  A
C1081      C1086   1.418       .  A
C1082      C1083   1.379       .  A
C1082      H1091   1.080       .  S
C1083      C1084   1.425       .  A
C1083      S1087   1.807       .  S
C1084      C1085   1.403       .  A
C1085      C1086   1.408       .  A
C1085      H1092   1.083       .  S
C1086      S1088   1.804       .  S
S1087      H1090   1.408       .  S
S1088      H1089   1.402       .  S
C1093      C1094   1.391       .  A
C1093      C1098   1.418       .  A
C1094      C1095   1.383       .  A
C1094      H1103   1.066       .  S
C1095      C1096   1.425       .  A
C1095      S1099   1.813       .  S
C1096      C1097   1.413       .  A
C1097      C1098   1.420       .  A
C1097      H1104   1.083       .  S
C1098      S1100   1.801       .  S
S1099      H1102   1.406       .  S
S1100      H1101   1.405       .  S
C1105      C1106   1.415       .  A
C1105      C1110   1.414       .  A
C1106      C1107   1.416       .  A
C1106      H1115   1.083       .  S
C1107      C1108   1.412       .  A
C1107      S1111   1.798       .  S
C1108      C1109   1.400       .  A
C1109      C1110   1.385       .  A
C1109      H1116   1.081       .  S
C1110      S1112   1.791       .  S
S1111      H1114   1.406       .  S
S1112      H1113   1.405       .  S
C1117      C1118   1.391       .  A
C1117      C1122   1.421       .  A
C1118      C1119   1.396       .  A
C1118      H1127   1.080       .  S
C1119      C1120   1.432       .  A
C1119      S1123   1.806       .  S
C1120      C1121   1.409       .  A
C1121      C1122   1.418       .  A
C1121      H1128   1.083       .  S
C1122      S1124   1.801       .  S
S1123      H1126   1.407       .  S
S1124      H1125   1.403       .  S
C1129      C1130   1.408       .  A
C1129      C1134   1.430       .  A
C1130      C1131   1.395       .  A
C1130      H1139   1.069       .  S
C1131      C1132   1.398       .  A
C1131      S1135   1.798       .  S
C1132      C1133   1.401       .  A
C1133      C1134   1.413       .  A
C1133      H1140   1.083       .  S
C1134      S1136   1.800       .  S
S1135      H1138   1.407       .  S
S1136      H1137   1.407       .  S
C1141      C1142   1.405       .  A
C1141      C1146   1.413       .  A
C1142      C1143   1.416       .  A
C1142      H1151   1.083       .  S
C1143      C1144   1.427       .  A
C1143      S1147   1.798       .  S
C1144      C1145   1.407       .  A
C1145      C1146   1.394       .  A
C1145      H1152   1.082       .  S
C1146      S1148   1.792       .  S
S1147      H1150   1.400       .  S
S1148      H1149   1.407       .  S
C1153      C1154   1.395       .  A
C1153      C1158   1.420       .  A
C1154      C1155   1.391   1_556  A
C1154      H1163   1.084       .  S
C1155      C1156   1.428       .  A
C1155      S1159   1.807       .  S
C1156      C1157   1.420       .  A
C1157      C1158   1.426   1_554  A
C1157      H1164   1.082       .  S
C1158      S1160   1.799       .  S
S1159      H1162   1.382       .  S
S1160      H1161   1.406       .  S
C1165      C1166   1.413       .  A
C1165      C1170   1.411       .  A
C1166      C1167   1.387       .  A
C1166      H1175   1.084       .  S
C1167      C1168   1.401       .  A
C1167      S1171   1.797       .  S
C1168      C1169   1.412       .  A
C1169      C1170   1.407       .  A
C1169      H1176   1.083       .  S
C1170      S1172   1.800       .  S
S1171      H1174   1.405       .  S
S1172      H1173   1.407       .  S
C1177      C1178   1.420       .  A
C1177      C1182   1.420       .  A
C1178      C1179   1.414       .  A
C1178      H1187   1.080       .  S
C1179      C1180   1.406       .  A
C1179      S1183   1.799       .  S
C1180      C1181   1.394       .  A
C1181      C1182   1.397       .  A
C1181      H1188   1.083       .  S
C1182      S1184   1.786       .  S
S1183      H1186   1.408       .  S
S1184      H1185   1.409       .  S
C1189      C1190   1.390       .  A
C1189      C1194   1.418       .  A
C1190      C1191   1.377       .  A
C1190      H1199   1.075       .  S
C1191      C1192   1.418       .  A
C1191      S1195   1.801       .  S
C1192      C1193   1.406       .  A
C1193      C1194   1.411       .  A
C1193      H1200   1.083       .  S
C1194      S1196   1.802       .  S
S1195      H1198   1.408       .  S
S1196      H1197   1.405       .  S
C1201      C1202   1.391       .  A
C1201      C1206   1.415       .  A
C1202      C1203   1.386       .  A
C1202      H1211   1.078       .  S
C1203      C1204   1.424       .  A
C1203      S1207   1.802       .  S
C1204      C1205   1.410       .  A
C1205      C1206   1.413       .  A
C1205      H1212   1.083       .  S
C1206      S1208   1.801       .  S
S1207      H1210   1.406   1_556  S
S1208      H1209   1.405       .  S
C1213      C1214   1.416   1_545  A
C1213      C1218   1.422   1_545  A
C1214      C1215   1.429       .  A
C1214      H1223   1.080   1_565  S
C1215      C1216   1.426       .  A
C1215      S1219   1.801       .  S
C1216      C1217   1.403       .  A
C1217      C1218   1.408       .  A
C1217      H1224   1.081       .  S
C1218      S1220   1.791   1_565  S
S1219      H1222   1.401       .  S
S1220      H1221   1.408   1_545  S
C1225      C1226   1.389       .  A
C1225      C1230   1.414       .  A
C1226      C1227   1.385       .  A
C1226      H1235   1.068       .  S
C1227      C1228   1.421       .  A
C1227      S1231   1.813       .  S
C1228      C1229   1.408       .  A
C1229      C1230   1.408       .  A
C1229      H1236   1.083       .  S
C1230      S1232   1.803       .  S
S1231      H1234   1.405       .  S
S1232      H1233   1.405       .  S
C1237      C1238   1.412       .  A
C1237      C1242   1.416       .  A
C1238      C1239   1.413       .  A
C1238      H1247   1.084       .  S
C1239      C1240   1.416       .  A
C1239      S1243   1.798       .  S
C1240      C1241   1.407       .  A
C1241      C1242   1.387       .  A
C1241      H1248   1.084       .  S
C1242      S1244   1.797       .  S
S1243      H1246   1.406       .  S
S1244      H1245   1.382       .  S
C1249      C1250   1.391       .  A
C1249      C1254   1.412       .  A
C1250      C1251   1.383       .  A
C1250      H1259   1.078       .  S
C1251      C1252   1.431       .  A
C1251      S1255   1.821   1_545  S
C1252      C1253   1.404       .  A
C1253      C1254   1.404       .  A
C1253      H1260   1.083       .  S
C1254      S1256   1.802       .  S
S1255      H1258   1.407       .  S
S1256      H1257   1.404       .  S
C1261      C1262   1.397       .  A
C1261      C1266   1.420       .  A
C1262      C1263   1.391       .  A
C1262      H1271   1.074       .  S
C1263      C1264   1.415       .  A
C1263      S1267   1.810       .  S
C1264      C1265   1.409       .  A
C1265      C1266   1.416       .  A
C1265      H1272   1.083       .  S
C1266      S1268   1.805       .  S
S1267      H1270   1.406       .  S
S1268      H1269   1.404       .  S
C1273      C1274   1.387       .  A
C1273      C1278   1.420       .  A
C1274      C1275   1.387   1_545  A
C1274      H1283   1.067       .  S
C1275      C1276   1.425       .  A
C1275      S1279   1.803       .  S
C1276      C1277   1.420       .  A
C1277      C1278   1.428   1_565  A
C1277      H1284   1.083       .  S
C1278      S1280   1.799       .  S
S1279      H1282   1.387       .  S
S1280      H1281   1.402       .  S
C1285      C1286   1.394       .  A
C1285      C1290   1.434       .  A
C1286      C1287   1.395   1_556  A
C1286      H1295   1.076       .  S
C1287      C1288   1.412       .  A
C1287      S1291   1.798       .  S
C1288      C1289   1.410       .  A
C1289      C1290   1.426   1_554  A
C1289      H1296   1.081       .  S
C1290      S1292   1.807       .  S
S1291      H1294   1.386       .  S
S1292      H1293   1.403       .  S
C1297      C1298   1.412       .  A
C1297      C1302   1.408       .  A
C1298      C1299   1.413       .  A
C1298      H1307   1.083       .  S
C1299      C1300   1.415       .  A
C1299      S1303   1.796       .  S
C1300      C1301   1.412       .  A
C1301      C1302   1.384       .  A
C1301      H1308   1.084       .  S
C1302      S1304   1.800       .  S
S1303      H1306   1.406       .  S
S1304      H1305   1.396       .  S
C1309      C1310   1.385       .  A
C1309      C1314   1.427       .  A
C1310      C1311   1.374       .  A
C1310      H1319   1.076       .  S
C1311      C1312   1.412       .  A
C1311      S1315   1.787       .  S
C1312      C1313   1.407       .  A
C1313      C1314   1.419       .  A
C1313      H1320   1.083       .  S
C1314      S1316   1.803       .  S
S1315      H1318   1.408       .  S
S1316      H1317   1.401       .  S
C1321      C1322   1.390       .  A
C1321      C1326   1.418       .  A
C1322      C1323   1.389       .  A
C1322      H1331   1.082       .  S
C1323      C1324   1.435       .  A
C1323      S1327   1.815       .  S
C1324      C1325   1.402       .  A
C1325      C1326   1.405       .  A
C1325      H1332   1.083       .  S
C1326      S1328   1.802       .  S
S1327      H1330   1.407       .  S
S1328      H1329   1.402       .  S
C1333      C1334   1.396       .  A
C1333      C1338   1.423       .  A
C1334      C1335   1.377       .  A
C1334      H1343   1.073       .  S
C1335      C1336   1.412       .  A
C1335      S1339   1.804       .  S
C1336      C1337   1.406       .  A
C1337      C1338   1.415       .  A
C1337      H1344   1.083       .  S
C1338      S1340   1.801       .  S
S1339      H1342   1.408       .  S
S1340      H1341   1.405       .  S
C1345      C1346   1.703       .  A
C1345      C1350   1.695       .  A
C1346      C1347   1.679       .  A
C1346      H1355   1.082       .  S
C1347      C1348   1.684       .  A
C1347      S1351   1.792       .  S
C1348      C1349   1.719       .  A
C1349      C1350   1.684       .  A
C1349      H1356   1.082       .  S
C1350      S1352   1.791       .  S
S1351      H1354   1.406       .  S
S1352      H1353   1.406       .  S
C1357      C1358   1.406       .  A
C1357      C1362   1.529       .  A
C1358      C1359   1.390       .  A
C1358      H1367   1.079       .  S
C1359      C1360   1.398       .  A
C1359      S1363   1.803       .  S
C1360      C1361   1.408       .  A
C1361      C1362   1.484       .  A
C1361      H1368   1.081       .  S
C1362      S1364   3.420       .  S
S1363      H1366   1.405       .  S
S1364      H1365   1.417       .  S
C1369      C1370   1.400       .  A
C1369      C1374   1.425       .  A
C1370      C1371   1.408       .  A
C1370      H1379   1.084       .  S
C1371      C1372   1.425       .  A
C1371      S1375   1.802       .  S
C1372      C1373   1.395       .  A
C1373      C1374   1.396       .  A
C1373      H1380   1.083       .  S
C1374      S1376   1.802       .  S
S1375      H1378   1.403       .  S
S1376      H1377   1.407       .  S
C1381      C1382   1.402       .  A
C1381      C1386   1.403       .  A
C1382      C1383   1.419       .  A
C1382      H1391   1.082       .  S
C1383      C1384   1.425       .  A
C1383      S1387   1.801       .  S
C1384      C1385   1.408       .  A
C1385      C1386   1.399       .  A
C1385      H1392   1.071       .  S
C1386      S1388   1.797   1_545  S
S1387      H1390   1.406       .  S
S1388      H1389   1.406       .  S
C1393      C1394   1.414       .  A
C1393      C1398   1.423       .  A
C1394      C1395   1.430       .  A
C1394      H1403   1.083       .  S
C1395      C1396   1.428   1_565  A
C1395      S1399   1.801   1_565  S
C1396      C1397   1.398       .  A
C1397      C1398   1.402   1_545  A
C1397      H1404   1.082       .  S
C1398      S1400   1.788       .  S
S1399      H1402   1.403       .  S
S1400      H1401   1.408       .  S
C1405      C1406   1.399       .  A
C1405      C1410   1.428       .  A
C1406      C1407   1.383       .  A
C1406      H1415   1.075       .  S
C1407      C1408   1.401       .  A
C1407      S1411   1.790   1_545  S
C1408      C1409   1.406       .  A
C1409      C1410   1.419       .  A
C1409      H1416   1.083       .  S
C1410      S1412   1.802       .  S
S1411      H1414   1.407       .  S
S1412      H1413   1.405       .  S
C1417      C1418   1.410       .  A
C1417      C1422   1.414       .  A
C1418      C1419   1.395       .  A
C1418      H1427   1.084       .  S
C1419      C1420   1.412       .  A
C1419      S1423   1.793       .  S
C1420      C1421   1.412       .  A
C1421      C1422   1.413       .  A
C1421      H1428   1.083       .  S
C1422      S1424   1.795       .  S
S1423      H1426   1.401       .  S
S1424      H1425   1.406       .  S
C1429      C1430   1.402       .  A
C1429      C1434   1.410       .  A
C1430      C1431   1.409       .  A
C1430      H1439   1.083       .  S
C1431      C1432   1.424       .  A
C1431      S1435   1.803       .  S
C1432      C1433   1.401       .  A
C1433      C1434   1.385       .  A
C1433      H1440   1.083       .  S
C1434      S1436   1.797       .  S
S1435      H1438   1.405       .  S
S1436      H1437   1.408       .  S
C1441      C1442   1.402       .  A
C1441      C1446   1.398       .  A
C1442      C1443   1.416       .  A
C1442      H1451   1.083       .  S
C1443      C1444   1.433       .  A
C1443      S1447   1.800       .  S
C1444      C1445   1.410       .  A
C1445      C1446   1.393       .  A
C1445      H1452   1.069       .  S
C1446      S1448   1.797   1_545  S
S1447      H1450   1.405       .  S
S1448      H1449   1.406       .  S
C1453      C1454   1.400       .  A
C1453      C1458   1.422   1_655  A
C1454      C1455   1.407   1_655  A
C1454      H1463   1.082       .  S
C1455      C1456   1.431       .  A
C1455      S1459   1.805       .  S
C1456      C1457   1.411       .  A
C1457      C1458   1.416       .  A
C1457      H1464   1.076       .  S
C1458      S1460   1.802   1_455  S
S1459      H1462   1.407       .  S
S1460      H1461   1.394       .  S
C1465      C1466   1.406       .  A
C1465      C1470   1.411       .  A
C1466      C1467   1.383       .  A
C1466      H1475   1.084       .  S
C1467      C1468   1.407       .  A
C1467      S1471   1.794       .  S
C1468      C1469   1.408       .  A
C1469      C1470   1.406       .  A
C1469      H1476   1.083       .  S
C1470      S1472   1.804       .  S
S1471      H1474   1.395       .  S
S1472      H1473   1.407       .  S
C1477      C1478   1.409       .  A
C1477      C1482   1.406       .  A
C1478      C1479   1.415       .  A
C1478      H1487   1.083       .  S
C1479      C1480   1.417       .  A
C1479      S1483   1.804       .  S
C1480      C1481   1.409       .  A
C1481      C1482   1.386       .  A
C1481      H1488   1.081       .  S
C1482      S1484   1.799       .  S
S1483      H1486   1.407       .  S
S1484      H1485   1.406       .  S
C1489      C1490   1.408       .  A
C1489      C1494   1.418       .  A
C1490      C1491   1.409       .  A
C1490      H1499   1.083       .  S
C1491      C1492   1.415       .  A
C1491      S1495   1.804       .  S
C1492      C1493   1.396       .  A
C1493      C1494   1.381       .  A
C1493      H1500   1.077       .  S
C1494      S1496   1.803       .  S
S1495      H1498   1.404       .  S
S1496      H1497   1.407       .  S
C1501      C1502   1.410       .  A
C1501      C1506   1.430       .  A
C1502      C1503   1.409       .  A
C1502      H1511   1.083       .  S
C1503      C1504   1.412       .  A
C1503      S1507   1.802       .  S
C1504      C1505   1.392       .  A
C1505      C1506   1.387       .  A
C1505      H1512   1.075       .  S
C1506      S1508   1.819       .  S
S1507      H1510   1.406       .  S
S1508      H1509   1.407       .  S
C1513      C1514   1.395       .  A
C1513      C1518   1.419       .  A
C1514      C1515   1.393       .  A
C1514      H1523   1.083       .  S
C1515      C1516   1.416   1_565  A
C1515      S1519   1.787   1_565  S
C1516      C1517   1.417   1_545  A
C1517      C1518   1.424       .  A
C1517      H1524   1.083   1_565  S
C1518      S1520   1.801       .  S
S1519      H1522   1.407   1_545  S
S1520      H1521   1.402       .  S
C1525      C1526   1.398       .  A
C1525      C1530   1.417       .  A
C1526      C1527   1.395       .  A
C1526      H1535   1.079       .  S
C1527      C1528   1.423   1_455  A
C1527      S1531   1.798   1_455  S
C1528      C1529   1.418   1_655  A
C1529      C1530   1.429       .  A
C1529      H1536   1.077   1_455  S
C1530      S1532   1.801       .  S
S1531      H1534   1.408   1_655  S
S1532      H1533   1.407       .  S
