geometry optimzed in LAMMPS
_audit_creation_date              2020-11-30 
_audit_creation_method            'lammps2cif' 
_symmetry_space_group_name_H-M    'P1' 
_symmetry_Int_Tables_number       1 
_symmetry_cell_setting            triclinic 
loop_ 
_symmetry_equiv_pos_as_xyz 
  x,y,z 
_cell_length_a                    26.38418087 
_cell_length_b                    26.406129502397228 
_cell_length_c                    26.39339701443773 
_cell_angle_alpha                 90.06141690055236 
_cell_angle_beta                  89.91332920930624 
_cell_angle_gamma                 90.02151896685585 
loop_ 
_atom_site_label 
_atom_site_type_symbol 
_atom_site_fract_x 
_atom_site_fract_y 
_atom_site_fract_z 
_atom_site_charge 
Zn1        Zn  0.04156746  0.03829975  0.95376325     1.49700
Zn2        Zn  0.95666432  0.95219596  0.95597864     1.49400
Zn3        Zn  0.04261526  0.95496181  0.04156566     1.49100
Zn4        Zn  0.95695588  0.03948753  0.04037814     1.49500
O5          O  0.99938744  0.99621077  0.99781992    -1.83300
O6          O  0.02748005  0.02437406  0.87994123    -0.74000
O7          O  0.97004371  0.87839002  0.97178831    -0.73800
O8          O  0.11658653  0.96930621  0.02877112    -0.73300
O9          O  0.96828646  0.96443803  0.88141471    -0.74000
O10         O  0.11534915  0.02487108  0.96594182    -0.73600
O11         O  0.03105568  0.88129041  0.02929715    -0.74200
O12         O  0.96835339  0.02622981  0.11484580    -0.73600
O13         O  0.88287787  0.96697098  0.96745829    -0.74300
O14         O  0.02742833  0.96625944  0.11549011    -0.73700
O15         O  0.88337042  0.02835449  0.02494867    -0.74200
O16         O  0.97138511  0.11299116  0.02775930    -0.74100
O17         O  0.02974993  0.11270640  0.96717067    -0.73900
C18         C  0.99730732  0.99438443  0.85719289     0.77900
C19         C  0.00089521  0.85609754  0.00152500     0.78400
C20         C  0.13974859  0.99730255  0.99702047     0.77400
C21         C  0.99715558  0.99579479  0.13864408     0.77700
C22         C  0.85955576  0.99879863  0.99518630     0.78900
C23         C  0.00083776  0.13650874  0.99769229     0.77900
Zn24       Zn  0.03668916  0.95661911  0.54274874     1.49700
Zn25       Zn  0.03669634  0.03973995  0.45534559     1.49400
Zn26       Zn  0.95301401  0.95216336  0.45514130     1.49100
Zn27       Zn  0.94850444  0.03978972  0.53899219     1.49500
O28         O  0.99364007  0.99705209  0.49806808    -1.83300
O29         O  0.11112007  0.97066156  0.53111005    -0.74000
O30         O  0.02216372  0.02852679  0.38149043    -0.73800
O31         O  0.96554660  0.87879739  0.47250655    -0.73300
O32         O  0.11081115  0.02500911  0.46680864    -0.74000
O33         O  0.02395578  0.88164169  0.53283154    -0.73600
O34         O  0.96877463  0.96348187  0.38090492    -0.74200
O35         O  0.87558387  0.02891727  0.52006945    -0.73600
O36         O  0.02492013  0.11362963  0.46974829    -0.74300
O37         O  0.87819784  0.96579883  0.46433379    -0.73700
O38         O  0.96281573  0.11350275  0.52664199    -0.74200
O39         O  0.95704162  0.02617155  0.61432266    -0.74100
O40         O  0.02189311  0.97255917  0.61543657    -0.73900
C41         C  0.13446077  0.99792903  0.49888517     0.77900
C42         C  0.99536392  0.99637647  0.35757744     0.78400
C43         C  0.99436033  0.85649946  0.50410610     0.77400
C44         C  0.85345611  0.99804839  0.49039687     0.77700
C45         C  0.99389410  0.13713078  0.49830216     0.78900
C46         C  0.98915418  0.99946527  0.63849466     0.77900
Zn47       Zn  0.96449925  0.45242476  0.04959800     1.49700
Zn48       Zn  0.04867295  0.54049548  0.05042302     1.49400
Zn49       Zn  0.05249688  0.45451608  0.96503776     1.49100
Zn50       Zn  0.96411169  0.53684044  0.96395500     1.49500
O51         O  0.00757959  0.49588286  0.00746918    -1.83300
O52         O  0.97740232  0.46569762  0.12415527    -0.74000
O53         O  0.12349834  0.53230254  0.03568937    -0.73800
O54         O  0.04057898  0.38002776  0.97739493    -0.73300
O55         O  0.03692517  0.52524680  0.12472540    -0.74000
O56         O  0.97921255  0.37890114  0.03507056    -0.73600
O57         O  0.12575559  0.46943186  0.97967722    -0.74200
O58         O  0.97569635  0.52142260  0.89041358    -0.73600
O59         O  0.03139124  0.61382570  0.03780001    -0.74300
O60         O  0.04075723  0.46798413  0.89045007    -0.73700
O61         O  0.97635384  0.61070393  0.97464507    -0.74200
O62         O  0.89056515  0.52547635  0.97841337    -0.74100
O63         O  0.88961698  0.46426549  0.03597551    -0.73900
C64         C  0.00730146  0.49512166  0.14816107     0.77900
C65         C  0.14815753  0.50191041  0.00740898     0.78400
C66         C  0.01008167  0.35579360  0.00591923     0.77400
C67         C  0.00805706  0.49447991  0.86691248     0.77700
C68         C  0.00291255  0.63600582  0.00578950     0.78900
C69         C  0.86650491  0.49537357  0.00726374     0.77900
Zn70       Zn  0.04386460  0.45339162  0.46592256     1.49700
Zn71       Zn  0.95670323  0.53814335  0.46505900     1.49400
Zn72       Zn  0.95614936  0.45262915  0.55041563     1.49100
Zn73       Zn  0.04221381  0.53863430  0.55113402     1.49500
O74         O  0.99962602  0.49569619  0.50811837    -1.83300
O75         O  0.03309359  0.46819211  0.39154086    -0.74000
O76         O  0.88240652  0.52704005  0.48022247    -0.73800
O77         O  0.96962044  0.37885214  0.53627773    -0.73300
O78         O  0.96858706  0.52255475  0.39064517    -0.74000
O79         O  0.03026673  0.37960235  0.47778707    -0.73600
O80         O  0.88185226  0.46563011  0.53755792    -0.74200
O81         O  0.02994239  0.52346974  0.62483197    -0.73600
O82         O  0.97138445  0.61239054  0.47741571    -0.74300
O83         O  0.96901716  0.46526830  0.62475849    -0.73700
O84         O  0.02863519  0.61278960  0.53889198    -0.74200
O85         O  0.11641299  0.52673538  0.53813847    -0.74100
O86         O  0.11760352  0.46409929  0.48192411    -0.73900
C87         C  0.00105288  0.49514448  0.36760558     0.77900
C88         C  0.85843928  0.49674570  0.50917189     0.78400
C89         C  0.00013242  0.35568731  0.50685221     0.77400
C90         C  0.99976934  0.49403534  0.64831800     0.77700
C91         C  0.00010342  0.63635217  0.50801172     0.78900
C92         C  0.14048767  0.49516368  0.51076932     0.77900
Zn93       Zn  0.54374846  0.96235957  0.95099504     1.49700
Zn94       Zn  0.45806772  0.04855943  0.94960332     1.49400
Zn95       Zn  0.45732347  0.96244799  0.03462750     1.49100
Zn96       Zn  0.54228844  0.04852696  0.03598350     1.49500
O97         O  0.50030193  0.00554899  0.99269347    -1.83300
O98         O  0.53015932  0.97366161  0.87687161    -0.74000
O99         O  0.38355874  0.03557056  0.96231881    -0.73800
O100        O  0.46935759  0.88823958  0.02112874    -0.73300
O101        O  0.47221693  0.03439851  0.87603640    -0.74000
O102        O  0.53351327  0.88828049  0.96644975    -0.73600
O103        O  0.38395875  0.97646276  0.02180312    -0.74200
O104        O  0.53011898  0.03403223  0.10919958    -0.73600
O105        O  0.47137418  0.12289352  0.96251833    -0.74300
O106        O  0.47073751  0.97479110  0.10852968    -0.73700
O107        O  0.52716788  0.12234818  0.02551955    -0.74200
O108        O  0.61642373  0.03665579  0.02296220    -0.74100
O109        O  0.61708972  0.97707686  0.96366007    -0.73900
C110        C  0.50127748  0.00368546  0.85266807     0.77900
C111        C  0.35995414  0.00593536  0.99222062     0.78400
C112        C  0.50188983  0.86483499  0.99427506     0.77400
C113        C  0.50061513  0.00405123  0.13259743     0.77700
C114        C  0.49885389  0.14611908  0.99466810     0.78900
C115        C  0.64039632  0.00681129  0.99358849     0.77900
Zn116      Zn  0.45108942  0.04444338  0.53478527     1.49700
Zn117      Zn  0.53756900  0.95957089  0.53443646     1.49400
Zn118      Zn  0.45162761  0.95861443  0.44959307     1.49100
Zn119      Zn  0.53681557  0.04509958  0.44948244     1.49500
O120        O  0.49421997  0.00198061  0.49208440    -1.83300
O121        O  0.46523346  0.03199218  0.60847410    -0.74000
O122        O  0.52311656  0.88599794  0.52333611    -0.73800
O123        O  0.37735433  0.97151564  0.46200674    -0.73300
O124        O  0.52648392  0.97463054  0.60852523    -0.74000
O125        O  0.37694259  0.02988515  0.52261265    -0.73600
O126        O  0.46498713  0.88469939  0.46294811    -0.74200
O127        O  0.52352808  0.03156956  0.37611321    -0.73600
O128        O  0.61142382  0.96940358  0.51784261    -0.74300
O129        O  0.46522415  0.97121183  0.37597474    -0.73700
O130        O  0.61110576  0.03185607  0.46151332    -0.74200
O131        O  0.52314431  0.11905154  0.46174362    -0.74100
O132        O  0.46391395  0.11863990  0.52163299    -0.73900
C133        C  0.49615951  0.00379060  0.63229049     0.77900
C134        C  0.49428641  0.86159623  0.49346884     0.78400
C135        C  0.35348447  0.00045880  0.49237484     0.77400
C136        C  0.49446968  0.00133267  0.35232637     0.77700
C137        C  0.63478233  0.99979189  0.48860285     0.78900
C138        C  0.49335430  0.14242596  0.49164584     0.77900
Zn139      Zn  0.54851966  0.46229924  0.95703103     1.49700
Zn140      Zn  0.46366568  0.54907758  0.96098891     1.49400
Zn141      Zn  0.46561569  0.46171272  0.04452548     1.49100
Zn142      Zn  0.55166996  0.54738848  0.04438957     1.49500
O143        O  0.50752241  0.50528192  0.00172915    -1.83300
O144        O  0.53502267  0.47865809  0.88374936    -0.74000
O145        O  0.38964189  0.53618112  0.97596197    -0.73800
O146        O  0.47887695  0.38791047  0.03105869    -0.73300
O147        O  0.47542217  0.53812673  0.88604414    -0.74000
O148        O  0.53179473  0.38851940  0.96564567    -0.73600
O149        O  0.39151516  0.47316188  0.03163253    -0.74200
O150        O  0.53942541  0.53326831  0.11906287    -0.73600
O151        O  0.47738105  0.62231294  0.97554261    -0.74300
O152        O  0.47829375  0.47535445  0.11832956    -0.73700
O153        O  0.53984856  0.62243583  0.03169910    -0.74200
O154        O  0.62503278  0.53180179  0.02999258    -0.74100
O155        O  0.62329253  0.47037784  0.97220015    -0.73900
C156        C  0.50484148  0.50886709  0.86134820     0.77900
C157        C  0.36704463  0.50420725  0.00416444     0.78400
C158        C  0.50450553  0.36468335  0.99741116     0.77400
C159        C  0.50877590  0.50402842  0.14230608     0.77700
C160        C  0.50857095  0.64611046  0.00357536     0.78900
C161        C  0.64763443  0.49982751  0.00171901     0.77900
Zn162      Zn  0.54372549  0.45967759  0.46016703     1.49700
Zn163      Zn  0.53958018  0.54772365  0.54324932     1.49400
Zn164      Zn  0.45383969  0.54090195  0.45802815     1.49100
Zn165      Zn  0.45876974  0.45794624  0.54640498     1.49500
O166        O  0.49897233  0.50154509  0.50191914    -1.83300
O167        O  0.61705316  0.47179674  0.47852783    -0.74000
O168        O  0.52313366  0.61985945  0.52698616    -0.73800
O169        O  0.46561797  0.52414676  0.38419780    -0.73300
O170        O  0.61460650  0.53740558  0.53141015    -0.74000
O171        O  0.53428760  0.47530649  0.38570450    -0.73600
O172        O  0.46505066  0.61594938  0.46659889    -0.74200
O173        O  0.38396982  0.47007074  0.53620771    -0.73600
O174        O  0.52652625  0.53704813  0.61789622    -0.74300
O175        O  0.38078435  0.52815459  0.47535686    -0.73700
O176        O  0.47489025  0.47056000  0.61995147    -0.74200
O177        O  0.47199747  0.38451240  0.53219744    -0.74100
O178        O  0.52884098  0.38516341  0.47010473    -0.73900
C179        C  0.63932704  0.50464523  0.50601085     0.77900
C180        C  0.49338374  0.64162058  0.49594802     0.78400
C181        C  0.50039578  0.49955975  0.36139116     0.77400
C182        C  0.35891015  0.49920665  0.50710359     0.77700
C183        C  0.50137412  0.50400545  0.64245656     0.78900
C184        C  0.50010092  0.36123482  0.50066984     0.77900
C185        C  0.50684940  0.46205634  0.77987708    -0.11500
C186        C  0.50325824  0.50860622  0.80536890     0.05500
C187        C  0.49844692  0.55353297  0.77691308    -0.06800
C188        C  0.49900370  0.55139097  0.72383838    -0.07500
C189        C  0.50267260  0.50480681  0.69839606    -0.02100
C190        C  0.50615624  0.45973918  0.72686308     0.04700
N191        N  0.51091465  0.41149590  0.70256400     0.67300
H192        H  0.51025765  0.42733031  0.80119741     0.16200
H193        H  0.49570821  0.58610091  0.70249319     0.15900
N194        N  0.49413041  0.60169561  0.80126473     0.75000
O195        O  0.55026565  0.40131238  0.67729574    -0.38500
O196        O  0.47911146  0.37697187  0.71170920    -0.38400
O197        O  0.53329504  0.62813471  0.80852639    -0.39100
O198        O  0.45093583  0.62123451  0.80755829    -0.39200
C199        C  0.54900803  0.50569507  0.28078465    -0.11500
C200        C  0.50212316  0.49996507  0.30538409     0.05500
C201        C  0.45769222  0.49583965  0.27604550    -0.06800
C202        C  0.46078155  0.49709356  0.22308069    -0.07500
C203        C  0.50756681  0.50344690  0.19839891    -0.02100
C204        C  0.55197439  0.50810941  0.22777942     0.04700
N205        N  0.60052563  0.51374714  0.20439897     0.67300
H206        H  0.58335270  0.50908023  0.30277861     0.16200
H207        H  0.42639912  0.49334161  0.20119788     0.15900
N208        N  0.40934828  0.48845314  0.29940137     0.75000
O209        O  0.62002206  0.55721011  0.20049284    -0.38500
O210        O  0.62712875  0.47507865  0.19534081    -0.38400
O211        O  0.37811676  0.52458009  0.30132333    -0.39100
O212        O  0.39498788  0.44427792  0.31063054    -0.39200
C213        C  0.45735201  0.77867225  0.46702017    -0.11500
C214        C  0.49463765  0.80531424  0.49414419     0.05500
C215        C  0.53136943  0.77741389  0.52129945    -0.06800
C216        C  0.52996065  0.72457219  0.52114164    -0.07500
C217        C  0.49257294  0.69786716  0.49433864    -0.02100
C218        C  0.45592116  0.72565256  0.46694588     0.04700
N219        N  0.41591650  0.70098690  0.44016349     0.67300
H220        H  0.42854881  0.79898341  0.44611681     0.16200
H221        H  0.55893492  0.70443654  0.54198808     0.15900
N222        N  0.57162492  0.80177934  0.54796832     0.75000
O223        O  0.37447183  0.69264619  0.46251834    -0.38500
O224        O  0.41818311  0.69723770  0.39254939    -0.38400
O225        O  0.56836874  0.80767230  0.59531215    -0.39100
O226        O  0.61397316  0.80712797  0.52641899    -0.39200
C227        C  0.48685216  0.22321277  0.53933456    -0.11500
C228        C  0.49398924  0.19841034  0.49284113     0.05500
C229        C  0.50316495  0.22751870  0.44894454    -0.06800
C230        C  0.50574941  0.28040469  0.45238037    -0.07500
C231        C  0.49864232  0.30522527  0.49893346    -0.02100
C232        C  0.48919285  0.27604063  0.54276402     0.04700
N233        N  0.48447435  0.29922191  0.59149745     0.67300
H234        H  0.48051902  0.20141772  0.57351821     0.16200
H235        H  0.51213107  0.30220367  0.41821660     0.15900
N236        N  0.50714159  0.20417602  0.40022131     0.75000
O237        O  0.44106903  0.30965268  0.60870604    -0.38500
O238        O  0.52227111  0.30041417  0.62070595    -0.38400
O239        O  0.46787618  0.19848450  0.37357063    -0.39100
O240        O  0.55021074  0.19734185  0.38054306    -0.39200
C241        C  0.46341766  0.72705612  0.98608190    -0.11500
C242        C  0.50761992  0.70240788  0.00292809     0.05500
C243        C  0.54991802  0.73214889  0.01705794    -0.06800
C244        C  0.54766365  0.78506712  0.01307425    -0.07500
C245        C  0.50351793  0.80918063  0.99614253    -0.02100
C246        C  0.46109564  0.77990783  0.98274987     0.04700
N247        N  0.41624819  0.80325131  0.96337488     0.67300
H248        H  0.43058376  0.70529750  0.97496682     0.16200
H249        H  0.58024939  0.80740696  0.02378987     0.15900
N250        N  0.59580975  0.70938254  0.03445789     0.75000
O251        O  0.41546199  0.81906610  0.91827771    -0.38500
O252        O  0.37563510  0.80163680  0.98862046    -0.38400
O253        O  0.63165121  0.70171191  0.00369825    -0.39100
O254        O  0.60360941  0.70497227  0.08140461    -0.39200
C255        C  0.50079433  0.22877101  0.94991532    -0.11500
C256        C  0.49858993  0.20197634  0.99573881     0.05500
C257        C  0.49804378  0.22897789  0.04186713    -0.06800
C258        C  0.49965824  0.28193975  0.04152662    -0.07500
C259        C  0.50274308  0.30879934  0.99578098    -0.02100
C260        C  0.50355270  0.28176084  0.94960147     0.04700
N261        N  0.50594589  0.30752478  0.90205905     0.67300
H262        H  0.50145174  0.20850820  0.91434039     0.16200
H263        H  0.49884710  0.30208137  0.07716951     0.15900
N264        N  0.49414839  0.20324018  0.08933106     0.75000
O265        O  0.54813273  0.31305602  0.88016484    -0.38500
O266        O  0.46560138  0.31702511  0.87829641    -0.38400
O267        O  0.53150050  0.20279786  0.11912137    -0.39100
O268        O  0.45132033  0.18872983  0.10495109    -0.39200
C269        C  0.47014193  0.03809706  0.77049038    -0.11500
C270        C  0.50105685  0.00326441  0.79625850     0.05500
C271        C  0.53032312  0.96877572  0.76741112    -0.06800
C272        C  0.52794325  0.96966464  0.71443165    -0.07500
C273        C  0.49698309  0.00447820  0.68868725    -0.02100
C274        C  0.46776857  0.03899666  0.71755242     0.04700
N275        N  0.43543320  0.07546320  0.69404951     0.67300
H276        H  0.44733438  0.06495566  0.79139340     0.16200
H277        H  0.55064830  0.94276477  0.69347156     0.15900
N278        N  0.56267117  0.93236045  0.79097520     0.75000
O279        O  0.38961116  0.06456484  0.68577440    -0.38500
O280        O  0.45003387  0.12078056  0.68988718    -0.38400
O281        O  0.54933631  0.88649933  0.79273921    -0.39100
O282        O  0.60756046  0.94436711  0.80226324    -0.39200
C283        C  0.46457880  0.97289538  0.21396391    -0.11500
C284        C  0.50036892  0.00329120  0.18883641     0.05500
C285        C  0.53420450  0.03277234  0.21815265    -0.06800
C286        C  0.53137290  0.03150159  0.27099277    -0.07500
C287        C  0.49533582  0.00137879  0.29610081    -0.02100
C288        C  0.46159109  0.97183737  0.26681496     0.04700
N289        N  0.42320136  0.94131703  0.28979437     0.67300
H290        H  0.43798801  0.95016120  0.19258986     0.16200
H291        H  0.55793409  0.05427796  0.29236470     0.15900
N292        N  0.57211113  0.06395909  0.19525474     0.75000
O293        O  0.38087373  0.96074090  0.30067028    -0.38500
O294        O  0.42842175  0.89384523  0.29125802    -0.38400
O295        O  0.56508252  0.11111263  0.19213066    -0.39100
O296        O  0.61587140  0.04620908  0.18781876    -0.39200
C297        C  0.77748991  0.54458625  0.50079501    -0.11500
C298        C  0.80223150  0.49832511  0.50994213     0.05500
C299        C  0.77270011  0.45476356  0.51983625    -0.06800
C300        C  0.71969587  0.45772799  0.51840805    -0.07500
C301        C  0.69517687  0.50385539  0.50895468    -0.02100
C302        C  0.72444562  0.54782116  0.50123174     0.04700
N303        N  0.70089916  0.59569524  0.49217295     0.67300
H304        H  0.79934452  0.57849370  0.49395427     0.16200
H305        H  0.69760276  0.42387982  0.52480961     0.15900
N306        N  0.79578717  0.40687244  0.52992782     0.75000
O307        O  0.68997369  0.62404422  0.52912507    -0.38500
O308        O  0.69944738  0.61324699  0.44775762    -0.38400
O309        O  0.79385463  0.38852628  0.57401817    -0.39100
O310        O  0.81110922  0.37973302  0.49363816    -0.39200
C311        C  0.22166908  0.54201096  0.50829012    -0.11500
C312        C  0.19628843  0.49552669  0.51169940     0.05500
C313        C  0.22464612  0.45039083  0.51460093    -0.06800
C314        C  0.27767403  0.45238896  0.51413160    -0.07500
C315        C  0.30308184  0.49883982  0.50973695    -0.02100
C316        C  0.27463297  0.54395045  0.50674083     0.04700
N317        N  0.29893328  0.59210912  0.50279556     0.67300
H318        H  0.20031057  0.57686968  0.50591969     0.16200
H319        H  0.29900285  0.41751873  0.51648058     0.15900
N320        N  0.20019341  0.40241091  0.51967936     0.75000
O321        O  0.29732795  0.61588747  0.46140152    -0.38500
O322        O  0.31340969  0.61461174  0.54241688    -0.38400
O323        O  0.20164509  0.37120908  0.48346771    -0.39100
O324        O  0.18573273  0.38785804  0.56286615    -0.39200
C325        C  0.73089663  0.54308260  0.00385167    -0.11500
C326        C  0.70352773  0.49759551  0.00312859     0.05500
C327        C  0.73003055  0.45120032  0.00412611    -0.06800
C328        C  0.78314594  0.45104839  0.00677400    -0.07500
C329        C  0.81051280  0.49664554  0.00691855    -0.02100
C330        C  0.78389539  0.54294292  0.00491360     0.04700
N331        N  0.81011070  0.59026454  0.00425078     0.67300
H332        H  0.71109769  0.57888525  0.00277890     0.16200
H333        H  0.80302046  0.41530200  0.00784803     0.15900
N334        N  0.70351999  0.40400787  0.00389696     0.75000
O335        O  0.81387311  0.61439559  0.96319716    -0.38500
O336        O  0.82091657  0.61195161  0.04546442    -0.38400
O337        O  0.70301842  0.37722833  0.96427868    -0.39100
O338        O  0.68673123  0.38600008  0.04488107    -0.39200
C339        C  0.23101273  0.45768140  0.00548922    -0.11500
C340        C  0.20411593  0.50349969  0.00701439     0.05500
C341        C  0.23117421  0.54959759  0.00808273    -0.06800
C342        C  0.28429065  0.54916103  0.00656426    -0.07500
C343        C  0.31111953  0.50328009  0.00530070    -0.02100
C344        C  0.28404521  0.45722257  0.00540345     0.04700
N345        N  0.30982998  0.40965312  0.00394368     0.67300
H346        H  0.21081442  0.42208464  0.00497398     0.16200
H347        H  0.30459108  0.58469577  0.00674536     0.15900
N348        N  0.20530615  0.59714320  0.00894575     0.75000
O349        O  0.31652006  0.38519518  0.04442940    -0.38500
O350        O  0.31831684  0.38851934  0.96188529    -0.38400
O351        O  0.20604892  0.62395180  0.04854214    -0.39100
O352        O  0.18799611  0.61541902  0.96835166    -0.39200
C353        C  0.95966939  0.49061497  0.78649725    -0.11500
C354        C  0.00675017  0.49360359  0.81103337     0.05500
C355        C  0.05142163  0.49591207  0.78177502    -0.06800
C356        C  0.04832947  0.49603524  0.72880183    -0.07500
C357        C  0.00124276  0.49301936  0.70423417    -0.02100
C358        C  0.95663368  0.48971172  0.73354163     0.04700
N359        N  0.90787222  0.48744582  0.71014433     0.67300
H360        H  0.92514408  0.48870254  0.80850731     0.16200
H361        H  0.08283014  0.49854887  0.70681646     0.15900
N362        N  0.09999213  0.50053710  0.80524446     0.75000
O363        O  0.88510022  0.44555818  0.70671023    -0.38500
O364        O  0.88445728  0.52789985  0.70029138    -0.38400
O365        O  0.13066120  0.46391250  0.80378401    -0.39100
O366        O  0.11496427  0.54328378  0.82054025    -0.39200
C367        C  0.96182762  0.48125765  0.22999652    -0.11500
C368        C  0.00671599  0.49477147  0.20450888     0.05500
C369        C  0.04971197  0.50832359  0.23349032    -0.06800
C370        C  0.04722310  0.50776174  0.28657602    -0.07500
C371        C  0.00216946  0.49497431  0.31170003    -0.02100
C372        C  0.95916350  0.48180334  0.28306642     0.04700
N373        N  0.91305363  0.46712625  0.30743030     0.67300
H374        H  0.92844064  0.47082532  0.20871418     0.16200
H375        H  0.08049739  0.51776260  0.30825701     0.15900
N376        N  0.09660844  0.52148674  0.20975351     0.75000
O377        O  0.87804271  0.49912525  0.31337691    -0.38500
O378        O  0.90449499  0.42091543  0.31605802    -0.38400
O379        O  0.11007433  0.56729673  0.20768311    -0.39100
O380        O  0.12787467  0.48717456  0.19830354    -0.39200
C381        C  0.03588125  0.77510751  0.52864285    -0.11500
C382        C  0.99421003  0.80018796  0.50701254     0.05500
C383        C  0.95407179  0.77079389  0.48710709    -0.06800
C384        C  0.95741624  0.71784534  0.48700054    -0.07500
C385        C  0.99939923  0.69272613  0.50791781    -0.02100
C386        C  0.03879677  0.72208669  0.52937531     0.04700
N387        N  0.08286123  0.69893052  0.55066118     0.67300
H388        H  0.06712027  0.79670551  0.54412249     0.16200
H389        H  0.92606096  0.69626210  0.47172780     0.15900
N390        N  0.90848618  0.79386167  0.46910137     0.75000
O391        O  0.11817683  0.68416474  0.52193670    -0.38500
O392        O  0.08985267  0.70032491  0.59793055    -0.38400
O393        O  0.89540607  0.78827548  0.42347053    -0.39100
O394        O  0.87773702  0.81313261  0.50031739    -0.39200
C395        C  0.04055557  0.21852009  0.49066463    -0.11500
C396        C  0.99464316  0.19310957  0.49918120     0.05500
C397        C  0.95073816  0.22161048  0.51029153    -0.06800
C398        C  0.95371613  0.27435187  0.51405929    -0.07500
C399        C  0.99960537  0.29975529  0.50561156    -0.02100
C400        C  0.04342624  0.27132466  0.49398402     0.04700
N401        N  0.09174004  0.29516792  0.48869310     0.67300
H402        H  0.07480110  0.19722684  0.48293022     0.16200
H403        H  0.91944329  0.29568645  0.52158930     0.15900
N404        N  0.90215566  0.19798557  0.51378784     0.75000
O405        O  0.11583932  0.30810983  0.52786615    -0.38500
O406        O  0.11398882  0.29479888  0.44634169    -0.38400
O407        O  0.87585365  0.20309878  0.55343344    -0.39100
O408        O  0.88199963  0.18027920  0.47425388    -0.39200
C409        C  0.71742714  0.04435186  0.48482267    -0.11500
C410        C  0.69068734  0.99851684  0.48661549     0.05500
C411        C  0.71792158  0.95253949  0.48756603    -0.06800
C412        C  0.77098760  0.95309075  0.48722849    -0.07500
C413        C  0.79766277  0.99897863  0.48702249    -0.02100
C414        C  0.77045275  0.04490315  0.48553418     0.04700
N415        N  0.79610999  0.09240768  0.48310663     0.67300
H416        H  0.69713477  0.07989538  0.48381428     0.16200
H417        H  0.79134966  0.91758777  0.48835228     0.15900
N418        N  0.69233619  0.90492303  0.48862333     0.75000
O419        O  0.80827558  0.11020325  0.44044457    -0.38500
O420        O  0.79684372  0.12074345  0.52162029    -0.38400
O421        O  0.67843477  0.88468304  0.44759923    -0.39100
O422        O  0.69307127  0.87890782  0.52866612    -0.39200
C423        C  0.27192833  0.00941255  0.53911500    -0.11500
C424        C  0.29731578  0.99948155  0.49330033     0.05500
C425        C  0.26847342  0.98820559  0.44962722    -0.06800
C426        C  0.21543446  0.98811450  0.45222614    -0.07500
C427        C  0.19031274  0.99782541  0.49803771    -0.02100
C428        C  0.21890957  0.00801335  0.54189279     0.04700
N429        N  0.19460467  0.01886330  0.58908663     0.67300
H430        H  0.29326455  0.01774859  0.57304094     0.16200
H431        H  0.19379122  0.98021904  0.41838305     0.15900
N432        N  0.29229461  0.97830594  0.40197511     0.75000
O433        O  0.18935220  0.98417346  0.62151234    -0.38500
O434        O  0.18665299  0.06427204  0.60171329    -0.38400
O435        O  0.29239870  0.93390780  0.38423916    -0.39100
O436        O  0.30610128  0.01477447  0.37435517    -0.39200
C437        C  0.96829354  0.77237139  0.97265486    -0.11500
C438        C  0.00154374  0.79981002  0.00378922     0.05500
C439        C  0.03420754  0.77266234  0.03652128    -0.06800
C440        C  0.03371217  0.71971504  0.03654897    -0.07500
C441        C  0.00113723  0.69227828  0.00469098    -0.02100
C442        C  0.96770507  0.71941820  0.97277901     0.04700
N443        N  0.93215203  0.69419164  0.94070855     0.67300
H444        H  0.94238504  0.79201401  0.94767084     0.16200
H445        H  0.05942219  0.70007780  0.06174617     0.15900
N446        N  0.06808580  0.79789013  0.07035481     0.75000
O447        O  0.88570056  0.69507813  0.95204831    -0.38500
O448        O  0.94537487  0.68104068  0.89665252    -0.38400
O449        O  0.05676493  0.80126058  0.11668699    -0.39100
O450        O  0.11296978  0.80674420  0.05640573    -0.39200
C451        C  0.96459245  0.27434465  0.01915159    -0.11500
C452        C  0.00908265  0.29959926  0.00434093     0.05500
C453        C  0.05067935  0.27064917  0.98693542    -0.06800
C454        C  0.04683434  0.21779514  0.98410262    -0.07500
C455        C  0.00232272  0.19262846  0.99896959    -0.05300
C456        C  0.96080072  0.22156765  0.01645662     0.04700
N457        N  0.91370791  0.19823693  0.02967501     0.67300
H458        H  0.93194861  0.29569777  0.03184594     0.16200
H459        H  0.07940077  0.19630406  0.97144218     0.15900
N460        N  0.09789109  0.29396766  0.97418195     0.75000
O461        O  0.90102052  0.19461387  0.07564205    -0.38500
O462        O  0.88165025  0.18866332  0.99554542    -0.38400
O463        O  0.13011023  0.30228859  0.00848750    -0.39100
O464        O  0.11076758  0.29799910  0.92830414    -0.39200
C465        C  0.72264733  0.98770833  0.95152162    -0.11500
C466        C  0.69650053  0.00608204  0.99414291     0.05500
C467        C  0.72454649  0.02261328  0.03658200    -0.06800
C468        C  0.77745661  0.02057503  0.03568080    -0.07500
C469        C  0.80358065  0.00157551  0.99338928    -0.02100
C470        C  0.77561099  0.98544038  0.95071061     0.04700
N471        N  0.80028524  0.96839617  0.90555556     0.67300
H472        H  0.70193456  0.97546580  0.91827569     0.16200
H473        H  0.79812494  0.03256686  0.06904599     0.15900
N474        N  0.69998559  0.03845434  0.08217940     0.75000
O475        O  0.80184571  0.92167686  0.89559090    -0.38500
O476        O  0.81234920  0.00004644  0.87183488    -0.38400
O477        O  0.68548107  0.00558557  0.11368680    -0.39100
O478        O  0.70070931  0.08454787  0.09481845    -0.39200
C479        C  0.27894829  0.96864859  0.02339866    -0.11500
C480        C  0.30355120  0.00480510  0.99290775     0.05500
C481        C  0.27359062  0.03814319  0.96367975    -0.06800
C482        C  0.22066604  0.03476391  0.96552173    -0.07500
C483        C  0.19611307  0.99859957  0.99604295    -0.02100
C484        C  0.22608201  0.96510312  0.02504065     0.04700
N485        N  0.20379202  0.92622631  0.05540742     0.67300
H486        H  0.30071950  0.94227379  0.04582273     0.16200
H487        H  0.19881447  0.06100299  0.94301665     0.15900
N488        N  0.29595438  0.07600881  0.93211056     0.75000
O489        O  0.19441633  0.88360442  0.03590601    -0.38500
O490        O  0.20175602  0.93144361  0.10289459    -0.38400
O491        O  0.30019790  0.06816984  0.88512570    -0.39100
O492        O  0.30320750  0.11995471  0.94947337    -0.39200
C493        C  0.03683176  0.99495909  0.71922110    -0.11500
C494        C  0.98988233  0.99977629  0.69458827     0.05500
C495        C  0.94523810  0.00271138  0.72402608    -0.06800
C496        C  0.94820491  0.99942867  0.77702185    -0.07500
C497        C  0.99528372  0.99505997  0.80137670    -0.02100
C498        C  0.03984184  0.99314141  0.77208587     0.04700
N499        N  0.08831807  0.98725863  0.79543601     0.67300
H500        H  0.07139365  0.99261211  0.69738319     0.16200
H501        H  0.91384546  0.00140978  0.79919782     0.15900
N502        N  0.89661657  0.00787249  0.70079841     0.75000
O503        O  0.10361629  0.94363423  0.80746319    -0.38500
O504        O  0.11865364  0.02417432  0.79692363    -0.38400
O505        O  0.86758909  0.97000398  0.69787244    -0.39100
O506        O  0.87935087  0.05149261  0.69175767    -0.39200
C507        C  0.98974769  0.95116624  0.27500699    -0.11500
C508        C  0.99528580  0.99700901  0.30146994     0.05500
C509        C  0.00135420  0.04241591  0.27374511    -0.06800
C510        C  0.00112614  0.04127635  0.22067976    -0.07500
C511        C  0.99602287  0.99540858  0.19445594    -0.02100
C512        C  0.99065314  0.95002921  0.22195328     0.04700
N513        N  0.98490072  0.90260779  0.19652808     0.67300
H514        H  0.98538874  0.91606221  0.29548448     0.16200
H515        H  0.00540422  0.07623302  0.19992387     0.15900
N516        N  0.00649753  0.09018861  0.29876180     0.75000
O517        O  0.02220136  0.87290197  0.19342664    -0.38500
O518        O  0.94108774  0.88662873  0.18599171    -0.38400
O519        O  0.04782317  0.11410805  0.29599476    -0.39100
O520        O  0.96789787  0.11167628  0.31711831    -0.39200
loop_ 
_geom_bond_atom_site_label_1 
_geom_bond_atom_site_label_2 
_geom_bond_distance 
_geom_bond_site_symmetry_2 
_ccdc_geom_bond_type 
Zn1           O5   1.955   1_445  S
Zn1           O6   2.017       .  S
Zn1          O10   2.005       .  S
Zn1          O17   2.020       .  S
Zn2           O5   1.960       .  S
Zn2           O7   2.025       .  S
Zn2           O9   2.018       .  S
Zn2          O13   2.008       .  S
Zn3           O5   1.957   1_454  S
Zn3           O8   2.016       .  S
Zn3          O11   1.995       .  S
Zn3          O14   2.013       .  S
Zn4           O5   1.953   1_544  S
Zn4          O12   2.020       .  S
Zn4          O15   2.006       .  S
Zn4          O16   2.006       .  S
O6           C18   1.273   1_445  A
O7           C19   1.276   1_656  A
O8           C20   1.273   1_554  A
O9           C18   1.273       .  A
O10          C20   1.273   1_545  A
O11          C19   1.270       .  A
O12          C21   1.273   1_545  A
O13          C22   1.272       .  A
O14          C21   1.272   1_455  A
O15          C22   1.273   1_544  A
O16          C23   1.272   1_654  A
O17          C23   1.274       .  A
C18         C497   1.474       .  S
C19         C438   1.488       .  S
C20         C483   1.488       .  S
C21         C511   1.473       .  S
C22         C469   1.480   1_565  S
C23         C455   1.483       .  S
Zn24         O28   1.957   1_455  S
Zn24         O29   2.021       .  S
Zn24         O33   2.025       .  S
Zn24         O40   2.002       .  S
Zn25         O28   1.957   1_445  S
Zn25         O30   2.009       .  S
Zn25         O32   2.017       .  S
Zn25         O36   2.012       .  S
Zn26         O28   1.959       .  S
Zn26         O31   2.019       .  S
Zn26         O34   2.025       .  S
Zn26         O37   2.021       .  S
Zn27         O28   1.963   1_545  S
Zn27         O35   2.009       .  S
Zn27         O38   2.009       .  S
Zn27         O39   2.034       .  S
O29          C41   1.273       .  A
O30          C42   1.272   1_445  A
O31          C43   1.274       .  A
O32          C41   1.273   1_545  A
O33          C43   1.275   1_455  A
O34          C42   1.275       .  A
O35          C44   1.272   1_545  A
O36          C45   1.273   1_455  A
O37          C44   1.274       .  A
O38          C45   1.273       .  A
O39          C46   1.275   1_545  A
O40          C46   1.272   1_455  A
C41         C427   1.474       .  S
C42         C508   1.481       .  S
C43         C382   1.489       .  S
C44         C413   1.475       .  S
C45         C396   1.478       .  S
C46         C494   1.481       .  S
Zn47         O51   1.960   1_655  S
Zn47         O52   2.028       .  S
Zn47         O56   2.016       .  S
Zn47         O63   2.033       .  S
Zn48         O51   1.962       .  S
Zn48         O53   2.023       .  S
Zn48         O55   2.026       .  S
Zn48         O59   2.018       .  S
Zn49         O51   1.961   1_556  S
Zn49         O54   2.019       .  S
Zn49         O57   2.010       .  S
Zn49         O60   2.025       .  S
Zn50         O51   1.952   1_656  S
Zn50         O58   2.006       .  S
Zn50         O61   1.997       .  S
Zn50         O62   2.000       .  S
O52          C64   1.276   1_655  A
O53          C65   1.274       .  A
O54          C66   1.274   1_556  A
O55          C64   1.275       .  A
O56          C66   1.275   1_655  A
O57          C65   1.273   1_556  A
O58          C67   1.272   1_655  A
O59          C68   1.275       .  A
O60          C67   1.274       .  A
O61          C68   1.270   1_656  A
O62          C69   1.270   1_556  A
O63          C69   1.274       .  A
C64         C368   1.487       .  S
C65         C340   1.477       .  S
C66         C452   1.485       .  S
C67         C354   1.475       .  S
C68         C441   1.487       .  S
C69         C329   1.478       .  S
Zn70         O74   1.961   1_455  S
Zn70         O75   2.023       .  S
Zn70         O79   2.006       .  S
Zn70         O86   2.011       .  S
Zn71         O74   1.959       .  S
Zn71         O76   2.021       .  S
Zn71         O78   2.030       .  S
Zn71         O82   2.025       .  S
Zn72         O74   1.963       .  S
Zn72         O77   2.015       .  S
Zn72         O80   2.020       .  S
Zn72         O83   2.019       .  S
Zn73         O74   1.959   1_455  S
Zn73         O81   2.012       .  S
Zn73         O84   2.017       .  S
Zn73         O85   2.012       .  S
O75          C87   1.274       .  A
O76          C88   1.274       .  A
O77          C89   1.274   1_655  A
O78          C87   1.275   1_655  A
O79          C89   1.272       .  A
O80          C88   1.273       .  A
O81          C90   1.273   1_455  A
O82          C91   1.276   1_655  A
O83          C90   1.274       .  A
O84          C91   1.273       .  A
O85          C92   1.272       .  A
O86          C92   1.272       .  A
C87         C371   1.476       .  S
C88         C298   1.484       .  S
C89         C399   1.477   1_455  S
C90         C357   1.477   1_655  S
C91         C385   1.489   1_455  S
C92         C312   1.473       .  S
Zn93         O97   1.955   1_565  S
Zn93         O98   2.012       .  S
Zn93        O102   2.017       .  S
Zn93        O109   2.002       .  S
Zn94         O97   1.958       .  S
Zn94         O99   2.023       .  S
Zn94        O101   2.011       .  S
Zn94        O105   2.023       .  S
Zn95         O97   1.950   1_564  S
Zn95        O100   2.016       .  S
Zn95        O103   2.000       .  S
Zn95        O106   2.009       .  S
Zn96         O97   1.955   1_554  S
Zn96        O104   1.996       .  S
Zn96        O107   2.009       .  S
Zn96        O108   2.010       .  S
O98         C110   1.273   1_565  A
O99         C111   1.274       .  A
O100        C112   1.272   1_554  A
O101        C110   1.274       .  A
O102        C112   1.272       .  A
O103        C111   1.273   1_564  A
O104        C113   1.270       .  A
O105        C114   1.274       .  A
O106        C113   1.274   1_565  A
O107        C114   1.272   1_554  A
O108        C115   1.273   1_554  A
O109        C115   1.272   1_565  A
C110        C270   1.489       .  S
C111        C480   1.489       .  S
C112        C245   1.471       .  S
C113        C284   1.484       .  S
C114        C256   1.475       .  S
C115        C466   1.480       .  S
Zn116       O120   1.954       .  S
Zn116       O121   2.008       .  S
Zn116       O125   2.020       .  S
Zn116       O132   2.018       .  S
Zn117       O120   1.954   1_565  S
Zn117       O122   2.001       .  S
Zn117       O124   2.016       .  S
Zn117       O128   2.013       .  S
Zn118       O120   1.958   1_565  S
Zn118       O123   2.015       .  S
Zn118       O126   2.015       .  S
Zn118       O129   2.003       .  S
Zn119       O120   1.955       .  S
Zn119       O127   2.000       .  S
Zn119       O130   2.017       .  S
Zn119       O131   2.012       .  S
O121        C133   1.272       .  A
O122        C134   1.271       .  A
O123        C135   1.273   1_565  A
O124        C133   1.275   1_565  A
O125        C135   1.274       .  A
O126        C134   1.274       .  A
O127        C136   1.273       .  A
O128        C137   1.272       .  A
O129        C136   1.272   1_565  A
O130        C137   1.273   1_545  A
O131        C138   1.272       .  A
O132        C138   1.274       .  A
C133        C273   1.489       .  S
C134        C214   1.486       .  S
C135        C424   1.482   1_545  S
C136        C287   1.484       .  S
C137        C410   1.476       .  S
C138        C228   1.479       .  S
Zn139       O143   1.961   1_556  S
Zn139       O144   2.015       .  S
Zn139       O148   2.010       .  S
Zn139       O155   2.025       .  S
Zn140       O143   1.960   1_556  S
Zn140       O145   2.021       .  S
Zn140       O147   2.022       .  S
Zn140       O151   2.004       .  S
Zn141       O143   1.954       .  S
Zn141       O146   2.011       .  S
Zn141       O149   2.008       .  S
Zn141       O152   2.009       .  S
Zn142       O143   1.965       .  S
Zn142       O150   2.032       .  S
Zn142       O153   2.034       .  S
Zn142       O154   2.015       .  S
O144        C156   1.274       .  A
O145        C157   1.274   1_556  A
O146        C158   1.273   1_554  A
O147        C156   1.274       .  A
O148        C158   1.271       .  A
O149        C157   1.272       .  A
O150        C159   1.275       .  A
O151        C160   1.273   1_556  A
O152        C159   1.273       .  A
O153        C160   1.275       .  A
O154        C161   1.274       .  A
O155        C161   1.274   1_556  A
C156        C186   1.478       .  S
C157        C343   1.476       .  S
C158        C259   1.477       .  S
C159        C203   1.481       .  S
C160        C242   1.487       .  S
C161        C326   1.476       .  S
Zn162       O166   1.956       .  S
Zn162       O167   2.020       .  S
Zn162       O171   2.024       .  S
Zn162       O178   2.024       .  S
Zn163       O166   1.956       .  S
Zn163       O168   2.001       .  S
Zn163       O170   2.022       .  S
Zn163       O174   2.020       .  S
Zn164       O166   1.962       .  S
Zn164       O169   2.021       .  S
Zn164       O172   2.016       .  S
Zn164       O175   2.009       .  S
Zn165       O166   1.956       .  S
Zn165       O173   2.018       .  S
Zn165       O176   2.015       .  S
Zn165       O177   2.005       .  S
O167        C179   1.274       .  A
O168        C180   1.273       .  A
O169        C181   1.274       .  A
O170        C179   1.273       .  A
O171        C181   1.275       .  A
O172        C180   1.272       .  A
O173        C182   1.274       .  A
O174        C183   1.273       .  A
O175        C182   1.272       .  A
O176        C183   1.273       .  A
O177        C184   1.272       .  A
O178        C184   1.274       .  A
C179        C301   1.476       .  S
C180        C217   1.486       .  S
C181        C200   1.479       .  S
C182        C315   1.475       .  S
C183        C189   1.477       .  S
C184        C231   1.480       .  S
C185        C186   1.404       .  A
C185        C190   1.401       .  A
C185        H192   1.080       .  S
C186        C187   1.411       .  A
C187        C188   1.402       .  A
C187        N194   1.429       .  S
C188        C189   1.404       .  A
C188        H193   1.080       .  S
C189        C190   1.411       .  A
C190        N191   1.431       .  S
N191        O195   1.262       .  A
N191        O196   1.262       .  A
N194        O198   1.262       .  A
N194        O197   1.262       .  A
C199        C200   1.404       .  A
C199        C204   1.403       .  A
C199        H206   1.081       .  S
C200        C201   1.410       .  A
C201        C202   1.401       .  A
C201        N208   1.429       .  S
C202        C203   1.405       .  A
C202        H207   1.081       .  S
C203        C204   1.411       .  A
C204        N205   1.429       .  S
N205        O209   1.262       .  A
N205        O210   1.262       .  A
N208        O212   1.262       .  A
N208        O211   1.262       .  A
C213        C214   1.406       .  A
C213        C218   1.401       .  A
C213        H220   1.082       .  S
C214        C215   1.414       .  A
C215        C216   1.396       .  A
C215        N222   1.428       .  S
C216        C217   1.404       .  A
C216        H221   1.083       .  S
C217        C218   1.414       .  A
C218        N219   1.428       .  S
N219        O223   1.261       .  A
N219        O224   1.262       .  A
N222        O226   1.261       .  A
N222        O225   1.262       .  A
C227        C228   1.403       .  A
C227        C232   1.399       .  A
C227        H234   1.083       .  S
C228        C229   1.412       .  A
C229        C230   1.401       .  A
C229        N236   1.429       .  S
C230        C231   1.404       .  A
C230        H235   1.083       .  S
C231        C232   1.413       .  A
C232        N233   1.429       .  S
N233        O237   1.262       .  A
N233        O238   1.262       .  A
N236        O240   1.262       .  A
N236        O239   1.262       .  A
C241        C242   1.409   1_556  A
C241        C246   1.400       .  A
C241        H248   1.080       .  S
C242        C243   1.415       .  A
C243        C244   1.403       .  A
C243        N250   1.429       .  S
C244        C245   1.402   1_554  A
C244        H249   1.080       .  S
C245        C246   1.405       .  A
C246        N247   1.430       .  S
N247        O251   1.262       .  A
N247        O252   1.262       .  A
N250        O254   1.262       .  A
N250        O253   1.262       .  A
C255        C256   1.403       .  A
C255        C260   1.401       .  A
C255        H262   1.080       .  S
C256        C257   1.410   1_556  A
C257        C258   1.399       .  A
C257        N264   1.429       .  S
C258        C259   1.403   1_554  A
C258        H263   1.080       .  S
C259        C260   1.412       .  A
C260        N261   1.429       .  S
N261        O265   1.262       .  A
N261        O266   1.262       .  A
N264        O268   1.262       .  A
N264        O267   1.262       .  A
C269        C270   1.406       .  A
C269        C274   1.399       .  A
C269        H276   1.081       .  S
C270        C271   1.415   1_545  A
C271        C272   1.400       .  A
C271        N278   1.429       .  S
C272        C273   1.406   1_565  A
C272        H277   1.081       .  S
C273        C274   1.415       .  A
C274        N275   1.429       .  S
N275        O279   1.262       .  A
N275        O280   1.262       .  A
N278        O282   1.262       .  A
N278        O281   1.262       .  A
C283        C284   1.405   1_565  A
C283        C288   1.397       .  A
C283        H290   1.082       .  S
C284        C285   1.415       .  A
C285        C286   1.397       .  A
C285        N292   1.429       .  S
C286        C287   1.405       .  A
C286        H291   1.082       .  S
C287        C288   1.414   1_545  A
C288        N289   1.429       .  S
N289        O293   1.262       .  A
N289        O294   1.262       .  A
N292        O296   1.261       .  A
N292        O295   1.262       .  A
C297        C298   1.407       .  A
C297        C302   1.402       .  A
C297        H304   1.080       .  S
C298        C299   1.413       .  A
C299        C300   1.401       .  A
C299        N306   1.429       .  S
C300        C301   1.402       .  A
C300        H305   1.080       .  S
C301        C302   1.409       .  A
C302        N303   1.429       .  S
N303        O307   1.262       .  A
N303        O308   1.262       .  A
N306        O310   1.262       .  A
N306        O309   1.262       .  A
C311        C312   1.401       .  A
C311        C316   1.399       .  A
C311        H318   1.081       .  S
C312        C313   1.410       .  A
C313        C314   1.400       .  A
C313        N320   1.428       .  S
C314        C315   1.402       .  A
C314        H319   1.081       .  S
C315        C316   1.411       .  A
C316        N317   1.428       .  S
N317        O321   1.261       .  A
N317        O322   1.262       .  A
N320        O324   1.262       .  A
N320        O323   1.262       .  A
C325        C326   1.401       .  A
C325        C330   1.399       .  A
C325        H332   1.081       .  S
C326        C327   1.411       .  A
C327        C328   1.403       .  A
C327        N334   1.429       .  S
C328        C329   1.404       .  A
C328        H333   1.080       .  S
C329        C330   1.411       .  A
C330        N331   1.428       .  S
N331        O335   1.261   1_554  A
N331        O336   1.262       .  A
N334        O338   1.262       .  A
N334        O337   1.262   1_554  A
C339        C340   1.403       .  A
C339        C344   1.399       .  A
C339        H346   1.080       .  S
C340        C341   1.411       .  A
C341        C342   1.402       .  A
C341        N348   1.429       .  S
C342        C343   1.404       .  A
C342        H347   1.080       .  S
C343        C344   1.410       .  A
C344        N345   1.429       .  S
N345        O349   1.262       .  A
N345        O350   1.262   1_554  A
N348        O352   1.262   1_554  A
N348        O351   1.262       .  A
C353        C354   1.404   1_655  A
C353        C358   1.400       .  A
C353        H360   1.081       .  S
C354        C355   1.409       .  A
C355        C356   1.401       .  A
C355        N362   1.429       .  S
C356        C357   1.404       .  A
C356        H361   1.081       .  S
C357        C358   1.410   1_455  A
C358        N359   1.429       .  S
N359        O363   1.262       .  A
N359        O364   1.262       .  A
N362        O366   1.262       .  A
N362        O365   1.262       .  A
C367        C368   1.407   1_655  A
C367        C372   1.402       .  A
C367        H374   1.081       .  S
C368        C369   1.415       .  A
C369        C370   1.403       .  A
C369        N376   1.429       .  S
C370        C371   1.402       .  A
C370        H375   1.081       .  S
C371        C372   1.408   1_455  A
C372        N373   1.429       .  S
N373        O377   1.262       .  A
N373        O378   1.262       .  A
N376        O380   1.262       .  A
N376        O379   1.262       .  A
C381        C382   1.406   1_455  A
C381        C386   1.402       .  A
C381        H388   1.082       .  S
C382        C383   1.414       .  A
C383        C384   1.401       .  A
C383        N390   1.431       .  S
C384        C385   1.405       .  A
C384        H389   1.083       .  S
C385        C386   1.415   1_655  A
C386        N387   1.430       .  S
N387        O391   1.262       .  A
N387        O392   1.262       .  A
N390        O394   1.262       .  A
N390        O393   1.262       .  A
C395        C396   1.403   1_455  A
C395        C400   1.399       .  A
C395        H402   1.083       .  S
C396        C397   1.412       .  A
C397        C398   1.398       .  A
C397        N404   1.428       .  S
C398        C399   1.402       .  A
C398        H403   1.084       .  S
C399        C400   1.412   1_655  A
C400        N401   1.428       .  S
N401        O405   1.261       .  A
N401        O406   1.262       .  A
N404        O408   1.261       .  A
N404        O407   1.262       .  A
C409        C410   1.402   1_545  A
C409        C414   1.399       .  A
C409        H416   1.081       .  S
C410        C411   1.411       .  A
C411        C412   1.400       .  A
C411        N418   1.427       .  S
C412        C413   1.401       .  A
C412        H417   1.081       .  S
C413        C414   1.410   1_565  A
C414        N415   1.427       .  S
N415        O419   1.262       .  A
N415        O420   1.262       .  A
N418        O422   1.261       .  A
N418        O421   1.262       .  A
C423        C424   1.406   1_545  A
C423        C428   1.401       .  A
C423        H430   1.081       .  S
C424        C425   1.414       .  A
C425        C426   1.401       .  A
C425        N432   1.429       .  S
C426        C427   1.401       .  A
C426        H431   1.081       .  S
C427        C428   1.408   1_565  A
C428        N429   1.429       .  S
N429        O433   1.262   1_545  A
N429        O434   1.262       .  A
N432        O436   1.262   1_565  A
N432        O435   1.262       .  A
C437        C438   1.404   1_656  A
C437        C442   1.398       .  A
C437        H444   1.083       .  S
C438        C439   1.417       .  A
C439        C440   1.398       .  A
C439        N446   1.429       .  S
C440        C441   1.404       .  A
C440        H445   1.083       .  S
C441        C442   1.416   1_454  A
C442        N443   1.429       .  S
N443        O447   1.261       .  A
N443        O448   1.262       .  A
N446        O450   1.261       .  A
N446        O449   1.261       .  A
C451        C452   1.405   1_655  A
C451        C456   1.399       .  A
C451        H458   1.082       .  S
C452        C453   1.414   1_554  A
C453        C454   1.401       .  A
C453        N460   1.429       .  S
C454        C455   1.405       .  A
C454        H459   1.082       .  S
C455        C456   1.413   1_456  A
C456        N457   1.430       .  S
N457        O461   1.262       .  A
N457        O462   1.262   1_554  A
N460        O464   1.262       .  A
N460        O463   1.262   1_556  A
C465        C466   1.405   1_565  A
C465        C470   1.399       .  A
C465        H472   1.083       .  S
C466        C467   1.412   1_556  A
C467        C468   1.397       .  A
C467        N474   1.428       .  S
C468        C469   1.403   1_554  A
C468        H473   1.083       .  S
C469        C470   1.413   1_545  A
C470        N471   1.430       .  S
N471        O475   1.262       .  A
N471        O476   1.262   1_565  A
N474        O478   1.262       .  A
N474        O477   1.262       .  A
C479        C480   1.407   1_564  A
C479        C484   1.399       .  A
C479        H486   1.081       .  S
C480        C481   1.414       .  A
C481        C482   1.400       .  A
C481        N488   1.429       .  S
C482        C483   1.407   1_545  A
C482        H487   1.081       .  S
C483        C484   1.413   1_556  A
C484        N485   1.429       .  S
N485        O489   1.262       .  A
N485        O490   1.262       .  A
N488        O492   1.262       .  A
N488        O491   1.262       .  A
C493        C494   1.406   1_455  A
C493        C498   1.399       .  A
C493        H500   1.080       .  S
C494        C495   1.412   1_565  A
C495        C496   1.404   1_545  A
C495        N502   1.429       .  S
C496        C497   1.404       .  A
C496        H501   1.080   1_565  S
C497        C498   1.407   1_655  A
C498        N499   1.429       .  S
N499        O503   1.262       .  A
N499        O504   1.262   1_565  A
N502        O506   1.262       .  A
N502        O505   1.262   1_545  A
C507        C508   1.405       .  A
C507        C512   1.401       .  A
C507        H514   1.080       .  S
C508        C509   1.414   1_665  A
C509        C510   1.401       .  A
C509        N516   1.430       .  S
C510        C511   1.401   1_445  A
C510        H515   1.080       .  S
C511        C512   1.409       .  A
C512        N513   1.428       .  S
N513        O517   1.261   1_655  A
N513        O518   1.262       .  A
N516        O520   1.262   1_455  A
N516        O519   1.262       .  A
