geometry optimzed in LAMMPS
_audit_creation_date              2020-12-01 
_audit_creation_method            'lammps2cif' 
_symmetry_space_group_name_H-M    'P1' 
_symmetry_Int_Tables_number       1 
_symmetry_cell_setting            triclinic 
loop_ 
_symmetry_equiv_pos_as_xyz 
  x,y,z 
_cell_length_a                    46.64097016 
_cell_length_b                    46.653034424654535 
_cell_length_c                    46.6054870006168 
_cell_angle_alpha                 89.69566334494033 
_cell_angle_beta                  90.10198593055776 
_cell_angle_gamma                 89.5852684800767 
loop_ 
_atom_site_label 
_atom_site_type_symbol 
_atom_site_fract_x 
_atom_site_fract_y 
_atom_site_fract_z 
_atom_site_charge 
C1          C  0.12378603  0.84702301  0.52190135     0.01600
C2          C  0.11412968  0.83972851  0.49418479     0.01600
C3          C  0.12767564  0.85187583  0.46995186     0.01600
C4          C  0.14603782  0.87574629  0.47308236     0.01600
C5          C  0.15116156  0.88683158  0.50078506     0.01600
C6          C  0.14254621  0.87063140  0.52509311     0.01600
C7          C  0.11683050  0.12875410  0.52169228     0.01600
C8          C  0.13751885  0.10627893  0.52204300     0.01600
C9          C  0.14837772  0.09532432  0.49603578     0.01600
C10         C  0.14097868  0.10958818  0.47012261     0.01600
C11         C  0.12212120  0.13349870  0.46988010     0.01600
C12         C  0.10785706  0.14128373  0.49541540     0.01600
C13         C  0.87111537  0.10264067  0.52755388     0.01600
C14         C  0.89088690  0.12537357  0.53157294     0.01600
C15         C  0.90566542  0.13768076  0.50780586     0.01600
C16         C  0.89831779  0.12850887  0.47974039     0.01600
C17         C  0.88055122  0.10432524  0.47591504     0.01600
C18         C  0.86781947  0.09062256  0.49990224     0.01600
C19         C  0.89351836  0.85055574  0.47836792     0.01600
C20         C  0.90373304  0.83746101  0.50396188     0.01600
C21         C  0.88959226  0.84346747  0.53042103     0.01600
C22         C  0.87271039  0.86926450  0.53167961     0.01600
C23         C  0.86677890  0.88556713  0.50641541     0.01600
C24         C  0.87420873  0.87393776  0.47954751     0.01600
C25         C  0.53257742  0.11507575  0.14622972     0.01600
C26         C  0.53152035  0.13712973  0.12517040     0.01600
C27         C  0.50512833  0.14525325  0.11276895     0.01600
C28         C  0.47950590  0.13716411  0.12667758     0.01600
C29         C  0.48052094  0.11505210  0.14762207     0.01600
C30         C  0.50692891  0.10194816  0.15525341     0.01600
C31         C  0.48369629  0.12042467  0.88947781     0.01600
C32         C  0.51124650  0.12714130  0.90018975     0.01600
C33         C  0.53568683  0.11854982  0.88397390     0.01600
C34         C  0.53256967  0.09968178  0.86017229     0.01600
C35         C  0.50529522  0.08767065  0.85476844     0.01600
C36         C  0.48080005  0.10068955  0.86672607     0.01600
C37         C  0.48576414  0.88832041  0.12935156     0.01600
C38         C  0.51375417  0.89489679  0.13876822     0.01600
C39         C  0.53709786  0.87924700  0.12733968     0.01600
C40         C  0.53295860  0.86068772  0.10365250     0.01600
C41         C  0.50558453  0.85783884  0.09099271     0.01600
C42         C  0.48179579  0.87111719  0.10459669     0.01600
C43         C  0.47604832  0.85793472  0.85341714     0.01600
C44         C  0.49936378  0.87481702  0.84435712     0.01600
C45         C  0.52755283  0.86531065  0.85032601     0.01600
C46         C  0.53198240  0.84362737  0.87155637     0.01600
C47         C  0.50811019  0.83247626  0.88690078     0.01600
C48         C  0.48025306  0.83691989  0.87523493     0.01600
C49         C  0.13483788  0.46347595  0.84199782     0.01600
C50         C  0.11979716  0.48937129  0.83536660     0.01600
C51         C  0.12983895  0.51573516  0.84662880     0.01600
C52         C  0.15140537  0.51567508  0.86801293     0.01600
C53         C  0.16115060  0.48936109  0.87943843     0.01600
C54         C  0.15527857  0.46363970  0.86462192     0.01600
C55         C  0.13248759  0.52265602  0.10579029     0.01600
C56         C  0.13945695  0.49706854  0.09116606     0.01600
C57         C  0.13043683  0.47083934  0.10280028     0.01600
C58         C  0.10969458  0.47073762  0.12483309     0.01600
C59         C  0.10078818  0.49660731  0.13767818     0.01600
C60         C  0.11504159  0.52212109  0.13059036     0.01600
C61         C  0.89042071  0.51427388  0.15356359     0.01600
C62         C  0.89836079  0.48770878  0.16665964     0.01600
C63         C  0.88064487  0.46332546  0.16151216     0.01600
C64         C  0.86573978  0.46322016  0.13421567     0.01600
C65         C  0.86346876  0.48872486  0.11737024     0.01600
C66         C  0.87222665  0.51480800  0.12935177     0.01600
C67         C  0.89752293  0.52274655  0.86229006     0.01600
C68         C  0.91086044  0.49641026  0.85552243     0.01600
C69         C  0.90118790  0.47123076  0.86931830     0.01600
C70         C  0.88139093  0.47277173  0.89236831     0.01600
C71         C  0.87317764  0.49971009  0.90316120     0.01600
C72         C  0.88040451  0.52446496  0.88727578     0.01600
N73         N  0.12229323  0.95598129  0.83494108    -0.06800
N74         N  0.09532532  0.94705945  0.83694588    -0.58900
N75         N  0.18490890  0.93791700  0.86438082    -0.06500
N76         N  0.19508719  0.91688292  0.88021740    -0.61000
N77         N  0.17008237  0.95615324  0.88013408    -0.06100
N78         N  0.16948504  0.94712102  0.90717274    -0.58900
N79         N  0.13737116  0.93773544  0.81942106    -0.05700
N80         N  0.12109488  0.91670038  0.81037376    -0.61400
C81         C  0.09492843  0.92266024  0.82108333     0.95400
C82         C  0.18565393  0.92280384  0.90676644     0.95200
N83         N  0.24492752  0.95833535  0.80256946    -0.07000
N84         N  0.27268518  0.95354493  0.80143818    -0.59500
N85         N  0.18423688  0.93885700  0.77051958    -0.05100
N86         N  0.17226419  0.92166305  0.75154515    -0.60700
N87         N  0.19814165  0.95944273  0.75743097    -0.07000
N88         N  0.19592880  0.95715953  0.72950228    -0.59700
N89         N  0.23185437  0.93746040  0.81606062    -0.04700
N90         N  0.25069011  0.91770727  0.82439962    -0.60800
Mn91       Mn  0.18449632  0.93736603  0.81762944     1.18400
C92         C  0.27613899  0.92822810  0.81512863     0.97500
C93         C  0.17972704  0.93370197  0.72612751     0.98100
N94         N  0.16868390  0.02626893  0.88117843    -0.07000
N95         N  0.16728263  0.03515893  0.90827220    -0.63300
N96         N  0.13638145  0.04431037  0.81989066    -0.05800
N97         N  0.11955742  0.06504144  0.81062446    -0.64000
N98         N  0.12164540  0.02573852  0.83528766    -0.06500
N99         N  0.09444016  0.03421541  0.83723961    -0.63600
N100        N  0.18332710  0.04484398  0.86567337    -0.05400
N101        N  0.19248969  0.06594748  0.88175052    -0.64300
Mn102      Mn  0.14482909  0.99099296  0.85885231     1.10700
C103        C  0.18272493  0.05981842  0.90824006     0.98700
C104        C  0.09352808  0.05862610  0.82125488     0.98800
N105        N  0.19787272  0.02488658  0.75763878    -0.06500
N106        N  0.19628036  0.02801405  0.72967455    -0.61900
N107        N  0.23148921  0.04510765  0.81748131    -0.05800
N108        N  0.25102808  0.06257443  0.82845191    -0.58600
N109        N  0.24424141  0.02451063  0.80320380    -0.07200
N110        N  0.27214113  0.02726118  0.80391867    -0.61500
N111        N  0.18315260  0.04489459  0.77084975    -0.06100
N112        N  0.17080278  0.06224721  0.75179856    -0.58600
Mn113      Mn  0.22150462  0.99187860  0.78018396     1.20200
Mn114      Mn  0.18357655  0.04559541  0.81848323     1.10100
Cl115      Cl  0.18330021  0.99150221  0.81921463    -0.86600
C116        C  0.17934813  0.05120259  0.72626139     0.95700
C117        C  0.27642158  0.05092051  0.81966889     0.95500
N118        N  0.03876455  0.10919051  0.83615420    -0.06800
N119        N  0.04727822  0.08196268  0.83817956    -0.58900
N120        N  0.06049146  0.17031411  0.86519533    -0.06500
N121        N  0.08214680  0.17952977  0.88053573    -0.61000
N122        N  0.04206131  0.15636110  0.88149822    -0.06100
N123        N  0.05156620  0.15548909  0.90839852    -0.58900
N124        N  0.05678656  0.12360655  0.81987248    -0.05700
N125        N  0.07701229  0.10667136  0.81008325    -0.61400
C126        C  0.07101324  0.08081883  0.82127990     0.95400
C127        C  0.07644804  0.17047310  0.90734858     0.95200
N128        N  0.04194657  0.23191675  0.80299423    -0.07000
N129        N  0.04867052  0.25910935  0.80019553    -0.59500
N130        N  0.05677739  0.16989939  0.77066944    -0.05100
N131        N  0.07213564  0.15645017  0.75088157    -0.60700
N132        N  0.03644822  0.18516935  0.75842775    -0.07000
N133        N  0.03720473  0.18260048  0.73045786    -0.59700
N134        N  0.06222764  0.21764406  0.81644593    -0.04700
N135        N  0.08340994  0.23511228  0.82339140    -0.60800
Mn136      Mn  0.05969349  0.17026993  0.81813837     1.18400
C137        C  0.07443656  0.26099146  0.81314347     0.97500
C138        C  0.05942137  0.16463904  0.72581138     0.98100
N139        N  0.97194485  0.15840414  0.88430046    -0.07000
N140        N  0.96289884  0.15621227  0.91127644    -0.63300
N141        N  0.95014812  0.12804112  0.82388595    -0.05800
N142        N  0.92804874  0.11254596  0.81600066    -0.64000
N143        N  0.96870456  0.11210302  0.83848315    -0.06500
N144        N  0.95897264  0.08546146  0.84102915    -0.63600
N145        N  0.95388418  0.17446728  0.86937469    -0.05400
N146        N  0.93308687  0.18398277  0.88571497    -0.64300
Mn147      Mn  0.00545005  0.13311032  0.86106223     1.10700
C148        C  0.93882009  0.17282739  0.91174069     0.98700
C149        C  0.93370231  0.08605761  0.82646565     0.98800
N150        N  0.97121721  0.18979495  0.76160998    -0.06500
N151        N  0.96627089  0.19100286  0.73399406    -0.61900
N152        N  0.95581012  0.22297907  0.82277745    -0.05800
N153        N  0.94113018  0.24308788  0.83654282    -0.58600
N154        N  0.97637121  0.23475727  0.80769922    -0.07200
N155        N  0.97628847  0.26265258  0.81052947    -0.61500
N156        N  0.95029586  0.17692934  0.77512437    -0.06100
N157        N  0.93024696  0.16919946  0.75648903    -0.58600
Mn158      Mn  0.00639637  0.21051102  0.78264388     1.20200
Mn159      Mn  0.95173612  0.17555506  0.82266855     1.10100
Cl160      Cl  0.00574937  0.17191703  0.82149225    -0.86600
C161        C  0.94077532  0.17825564  0.73076371     0.95700
C162        C  0.95436802  0.26773472  0.82850701     0.95500
N163        N  0.04413749  0.87534101  0.16294467    -0.06800
N164        N  0.05258757  0.90241836  0.16024021    -0.58900
N165        N  0.06296089  0.81409631  0.13188503    -0.06500
N166        N  0.08372178  0.80519412  0.11512948    -0.61000
N167        N  0.04364302  0.82875331  0.11705421    -0.06100
N168        N  0.05169733  0.83053747  0.08971656    -0.58900
N169        N  0.06342098  0.86049515  0.17764559    -0.05700
N170        N  0.08457996  0.87702270  0.18564215    -0.61400
C171        C  0.07773885  0.90305523  0.17502062     0.95400
C172        C  0.07662891  0.81523616  0.08894822     0.95200
N173        N  0.04810016  0.75252219  0.19505487    -0.07000
N174        N  0.05440695  0.72507343  0.19665681    -0.59500
N175        N  0.06774058  0.81270623  0.22626216    -0.05100
N176        N  0.08853878  0.82025523  0.24406346    -0.60700
N177        N  0.04799263  0.79850904  0.24026345    -0.07000
N178        N  0.05456166  0.79607379  0.26751903    -0.59700
N179        N  0.06725989  0.76629022  0.17983744    -0.04700
N180        N  0.08716574  0.74825233  0.17045592    -0.60800
Mn181      Mn  0.06576648  0.81356188  0.17879826     1.18400
C182        C  0.07863899  0.72258585  0.18114318     0.97500
C183        C  0.07974564  0.80973191  0.26981633     0.98100
N184        N  0.97356422  0.82745679  0.11965322    -0.07000
N185        N  0.96338990  0.83001457  0.09308921    -0.63300
N186        N  0.95624605  0.85829630  0.18128712    -0.05800
N187        N  0.93475414  0.87431970  0.19031575    -0.64000
N188        N  0.97402944  0.87374351  0.16561076    -0.06500
N189        N  0.96437736  0.90055872  0.16348405    -0.63600
N190        N  0.95590886  0.81197036  0.13543892    -0.05400
N191        N  0.93397594  0.80352906  0.11990141    -0.64300
Mn192      Mn  0.00881367  0.85211210  0.14052599     1.10700
C193        C  0.93886004  0.81453847  0.09354027     0.98700
C194        C  0.94002984  0.90062077  0.17942502     0.98800
N195        N  0.98216012  0.79705140  0.24285696    -0.06500
N196        N  0.97997676  0.79773511  0.27093754    -0.61900
N197        N  0.96032753  0.76277284  0.18385946    -0.05800
N198        N  0.94339336  0.74248257  0.17344980    -0.58600
N199        N  0.98212603  0.75083763  0.19730717    -0.07200
N200        N  0.98081481  0.72279833  0.19640193    -0.61500
N201        N  0.96072210  0.81075115  0.23052880    -0.06100
N202        N  0.94335981  0.82142442  0.25035817    -0.58600
Mn203      Mn  0.01491939  0.77475378  0.21888748     1.20200
Mn204      Mn  0.95746590  0.81082662  0.18283947     1.10100
Cl205      Cl  0.01159904  0.81316891  0.17989754    -0.86600
C206        C  0.95581492  0.81294757  0.27542141     0.95700
C207        C  0.95684283  0.71758889  0.18134680     0.95500
N208        N  0.24823129  0.79882004  0.02799901    -0.06800
N209        N  0.27614664  0.80077371  0.03046769    -0.58900
N210        N  0.18879058  0.76595369  0.04972394    -0.06500
N211        N  0.17622463  0.74679199  0.06647099    -0.61000
N212        N  0.20314174  0.75297822  0.02936618    -0.06100
N213        N  0.20078997  0.72517833  0.03131001    -0.58900
N214        N  0.23514494  0.81325050  0.04828889    -0.05700
N215        N  0.25420178  0.82572556  0.06510226    -0.61400
C216        C  0.27964633  0.81741099  0.05365515     0.95400
C217        C  0.18411133  0.72154045  0.05436521     0.95200
N218        N  0.12504664  0.82850304  0.03195599    -0.07000
N219        N  0.09816012  0.83052963  0.04127746    -0.59500
N220        N  0.18648617  0.86005392  0.04998917    -0.05100
N221        N  0.19536300  0.87612091  0.07129031    -0.60700
N222        N  0.17106461  0.87522058  0.03158859    -0.07000
N223        N  0.16887406  0.90217988  0.04078670    -0.59700
N224        N  0.14070053  0.81367381  0.05045645    -0.04700
N225        N  0.12489645  0.80488890  0.07200149    -0.60800
Mn226      Mn  0.18782032  0.81315620  0.05034600     1.18400
C227        C  0.09845593  0.81516163  0.06614881     0.97500
C228        C  0.18464480  0.90238432  0.06547238     0.98100
N229        N  0.20245218  0.74986044  0.96437832    -0.07000
N230        N  0.20198582  0.72176377  0.96219240    -0.63300
N231        N  0.23452158  0.80908051  0.94115021    -0.05800
N232        N  0.25314498  0.81641418  0.92089578    -0.64000
N233        N  0.24800236  0.79586895  0.96214906    -0.06500
N234        N  0.27555900  0.79363945  0.95695549    -0.63600
N235        N  0.18705760  0.76213345  0.94410346    -0.05400
N236        N  0.17550018  0.74217946  0.92753203    -0.64300
Mn237      Mn  0.22571035  0.77437881  0.99614212     1.10700
C238        C  0.18505050  0.71701933  0.93928738     0.98700
C239        C  0.27870685  0.80662699  0.93136687     0.98800
N240        N  0.17142091  0.87288705  0.96145256    -0.06500
N241        N  0.17043385  0.90008523  0.95310974    -0.61900
N242        N  0.13936246  0.81198445  0.94323631    -0.05800
N243        N  0.12286504  0.80353465  0.92200853    -0.58600
N244        N  0.12451779  0.82760196  0.96163284    -0.07200
N245        N  0.09753662  0.83022151  0.95256980    -0.61500
N246        N  0.18593166  0.85741208  0.94267818    -0.06100
N247        N  0.19544422  0.87377302  0.92183308    -0.58600
Mn248      Mn  0.14720764  0.85184744  0.99651789     1.20200
Mn249      Mn  0.18653564  0.81022395  0.94201289     1.10100
Cl250      Cl  0.18664417  0.81258472  0.99619182    -0.86600
C251        C  0.18594405  0.90022763  0.92857014     0.95700
C252        C  0.09683797  0.81466813  0.92797373     0.95500
N253        N  0.03944268  0.19221105  0.23784610    -0.06800
N254        N  0.04486513  0.19468479  0.26530597    -0.58900
N255        N  0.05545558  0.22372664  0.17600859    -0.06500
N256        N  0.07043964  0.24326825  0.16189944    -0.61000
N257        N  0.03457749  0.23617672  0.19022106    -0.06100
N258        N  0.03461070  0.26397966  0.18629040    -0.58900
N259        N  0.06023020  0.17849590  0.22474927    -0.05700
N260        N  0.08060946  0.17141969  0.24346932    -0.61400
C261        C  0.07050533  0.18174484  0.26880534     0.95400
C262        C  0.05694959  0.26825348  0.16867666     0.95200
N263        N  0.03981357  0.15884603  0.11559414    -0.07000
N264        N  0.04919624  0.15606485  0.08872962    -0.59500
N265        N  0.06037542  0.12870765  0.17723621    -0.05100
N266        N  0.08230107  0.11272038  0.18540720    -0.60700
N267        N  0.04178077  0.11314932  0.16277512    -0.07000
N268        N  0.05124921  0.08630516  0.16057047    -0.59700
N269        N  0.05799821  0.17451631  0.13033573    -0.04700
N270        N  0.07922005  0.18311761  0.11399232    -0.60800
Mn271      Mn  0.05921489  0.17625999  0.17722417     1.18400
C272        C  0.07366196  0.17187133  0.08808063     0.97500
C273        C  0.07641611  0.08634975  0.17522515     0.98100
N274        N  0.96895693  0.23463865  0.19443568    -0.07000
N275        N  0.96295850  0.26219853  0.19554555    -0.63300
N276        N  0.95368685  0.17346760  0.22978147    -0.05800
N277        N  0.93837439  0.16135910  0.25057127    -0.64000
N278        N  0.97406703  0.18907900  0.24102149    -0.06500
N279        N  0.97341110  0.18805852  0.26908790    -0.63600
N280        N  0.94792731  0.22037719  0.18262917    -0.05400
N281        N  0.92665471  0.23819032  0.17571137    -0.64300
Mn282      Mn  0.00434089  0.21314286  0.21588694     1.10700
C283        C  0.93670446  0.26426012  0.18368739     0.98700
C284        C  0.95139234  0.17062223  0.27503488     0.98800
N285        N  0.97205705  0.11145225  0.16474304    -0.06500
N286        N  0.96365365  0.08434140  0.16268878    -0.61900
N287        N  0.95042118  0.17230407  0.13453128    -0.05800
N288        N  0.92911386  0.18174411  0.11852948    -0.58600
N289        N  0.96936261  0.15836426  0.11869016    -0.07200
N290        N  0.96060289  0.15767548  0.09157239    -0.61500
N291        N  0.95386512  0.12593650  0.18088772    -0.06100
N292        N  0.93354108  0.10910545  0.19043076    -0.58600
Mn293      Mn  0.00561287  0.13473765  0.13962174     1.20200
Mn294      Mn  0.95072233  0.17276358  0.18189108     1.10100
Cl295      Cl  0.00497075  0.17404058  0.17855286    -0.86600
C296        C  0.93975734  0.08326342  0.17930614     0.95700
C297        C  0.93562122  0.17277387  0.09187724     0.95500
N298        N  0.20040820  0.96116449  0.23905174    -0.06800
N299        N  0.19881152  0.95781532  0.26692318    -0.58900
N300        N  0.23715015  0.94208384  0.17981738    -0.06500
N301        N  0.25812162  0.92670398  0.16799943    -0.61000
N302        N  0.24824796  0.96237102  0.19561828    -0.06100
N303        N  0.27627697  0.96161458  0.19505115    -0.58900
N304        N  0.18767666  0.94030856  0.22542027    -0.05700
N305        N  0.17668328  0.92198829  0.24424021    -0.61400
C306        C  0.18394933  0.93350847  0.26999214     0.95400
C307        C  0.28244492  0.93958983  0.17773248     0.95200
N308        N  0.17343130  0.95946367  0.11493124    -0.07000
N309        N  0.17036010  0.95002551  0.08817495    -0.59500
N310        N  0.14214263  0.94054094  0.17555629    -0.05100
N311        N  0.12615685  0.91931812  0.18454350    -0.60700
N312        N  0.12667930  0.95923725  0.16069787    -0.07000
N313        N  0.09971863  0.95023658  0.15880343    -0.59700
N314        N  0.18890491  0.94094853  0.13005121    -0.04700
N315        N  0.19682190  0.91922830  0.11388403    -0.60800
Mn316      Mn  0.18916471  0.94012438  0.17754793     1.18400
C317        C  0.18551072  0.92501576  0.08779215     0.97500
C318        C  0.09982189  0.92544234  0.17431683     0.98100
N319        N  0.24729785  0.02705269  0.19682058    -0.07000
N320        N  0.27482259  0.03099718  0.20006211    -0.63300
N321        N  0.18648059  0.04754741  0.22599515    -0.05800
N322        N  0.17714290  0.06674907  0.24467361    -0.64000
N323        N  0.19941699  0.02637923  0.23948233    -0.06500
N324        N  0.19943661  0.03038109  0.26723720    -0.63600
N325        N  0.23543537  0.04792497  0.18200727    -0.05400
N326        N  0.25518164  0.06697784  0.17480200    -0.64300
Mn327      Mn  0.22370416  0.99407624  0.21779778     1.10700
C328        C  0.27971604  0.05581603  0.18633539     0.98700
C329        C  0.18545619  0.05541843  0.27029606     0.98800
N330        N  0.12615943  0.03001561  0.16105268    -0.06500
N331        N  0.09914602  0.03930193  0.15908863    -0.61900
N332        N  0.18893707  0.04768188  0.13169426    -0.05800
N333        N  0.19821642  0.06890853  0.11570112    -0.58600
N334        N  0.17404190  0.02947186  0.11612488    -0.07200
N335        N  0.17261989  0.03863814  0.08915010    -0.61500
N336        N  0.14126675  0.04835692  0.17620639    -0.06100
N337        N  0.12508281  0.06961967  0.18520087    -0.58600
Mn338      Mn  0.14920082  0.99463529  0.13742678     1.20200
Mn339      Mn  0.18800699  0.04856090  0.17868115     1.10100
Cl340      Cl  0.18740407  0.99432112  0.17760757    -0.86600
C341        C  0.09889201  0.06389388  0.17475061     0.95700
C342        C  0.18821847  0.06307909  0.08928320     0.95500
N343        N  0.17158052  0.11271056  0.03438548    -0.06800
N344        N  0.17145520  0.08553850  0.04293632    -0.58900
N345        N  0.13883338  0.17464360  0.05064876    -0.06500
N346        N  0.12212928  0.18339704  0.07161140    -0.61000
N347        N  0.12432667  0.15859364  0.03257245    -0.06100
N348        N  0.09738028  0.15589077  0.04155784    -0.58900
N349        N  0.18563913  0.12849212  0.05305214    -0.05700
N350        N  0.19575479  0.11247613  0.07404844    -0.61400
C351        C  0.18706892  0.08581463  0.06752639     0.95400
C352        C  0.09630671  0.17194792  0.06579975     0.95200
N353        N  0.20258337  0.23498789  0.02861603    -0.07000
N354        N  0.20125336  0.26308336  0.02970172    -0.59500
N355        N  0.23352412  0.17543358  0.05343235    -0.05100
N356        N  0.25129620  0.16580027  0.07351975    -0.60700
N357        N  0.24795465  0.18829078  0.03301825    -0.07000
N358        N  0.27559265  0.18817977  0.03865457    -0.59700
N359        N  0.18675240  0.22326998  0.04869499    -0.04700
N360        N  0.17407589  0.24359527  0.06402239    -0.60800
Mn361      Mn  0.18600891  0.17557309  0.05217789     1.18400
C362        C  0.18345549  0.26837563  0.05178200     0.97500
C363        C  0.27738820  0.17400698  0.06382534     0.98100
N364        N  0.12635653  0.15740176  0.96296478    -0.07000
N365        N  0.09927290  0.15601046  0.95432845    -0.63300
N366        N  0.18742666  0.12430847  0.94590876    -0.05800
N367        N  0.19556518  0.10761159  0.92476954    -0.64000
N368        N  0.17172694  0.10992502  0.96449483    -0.06500
N369        N  0.16850624  0.08305515  0.95555592    -0.63600
N370        N  0.14183587  0.17155984  0.94396604    -0.05400
N371        N  0.12557348  0.18032826  0.92254339    -0.64300
Mn372      Mn  0.14781238  0.13391371  0.99864930     1.10700
C373        C  0.09914134  0.17084081  0.92923480     0.98700
C374        C  0.18399565  0.08193442  0.93086230     0.98800
N375        N  0.24976662  0.18491543  0.96679738    -0.06500
N376        N  0.27771319  0.18389004  0.96386753    -0.61900
N377        N  0.19132488  0.21900020  0.94282295    -0.05800
N378        N  0.18182668  0.23823241  0.92387370    -0.58600
N379        N  0.20550806  0.23191423  0.96329243    -0.07200
N380        N  0.20602972  0.25966109  0.95917278    -0.61500
N381        N  0.23690299  0.17043860  0.94644597    -0.06100
N382        N  0.25623441  0.15879612  0.92915368    -0.58600
Mn383      Mn  0.22670658  0.21005420  0.99794189     1.20200
Mn384      Mn  0.18927697  0.17132515  0.94401620     1.10100
Cl385      Cl  0.18729268  0.17262159  0.99817478    -0.86600
C386        C  0.28151696  0.16755788  0.94050424     0.95700
C387        C  0.19112578  0.26353227  0.93481078     0.95500
N388        N  0.81203931  0.02819694  0.24152156    -0.06800
N389        N  0.81211916  0.03227158  0.26930688    -0.58900
N390        N  0.78053180  0.04716766  0.18044224    -0.06500
N391        N  0.76200038  0.06556246  0.16891966    -0.61000
N392        N  0.76690366  0.02726306  0.19488059    -0.06100
N393        N  0.73904809  0.03163534  0.19386855    -0.58900
N394        N  0.82699900  0.04780995  0.22817376    -0.05700
N395        N  0.83794364  0.06593866  0.24695702    -0.61400
C396        C  0.82811571  0.05585577  0.27247385     0.95400
C397        C  0.73619004  0.05537710  0.17744299     0.95200
N398        N  0.84398144  0.02797290  0.11880920    -0.07000
N399        N  0.84585904  0.03716870  0.09175355    -0.59500
N400        N  0.87505740  0.04630804  0.18037781    -0.05100
N401        N  0.89127192  0.06729925  0.18940233    -0.60700
N402        N  0.89031575  0.02772369  0.16543487    -0.07000
N403        N  0.91734109  0.03646528  0.16361848    -0.59700
N404        N  0.82898372  0.04656701  0.13395682    -0.04700
N405        N  0.81995867  0.06790108  0.11775441    -0.60800
Mn406      Mn  0.82799652  0.04753580  0.18079400     1.18400
C407        C  0.83024260  0.06197860  0.09151140     0.97500
C408        C  0.91753739  0.06103402  0.17916994     0.98100
N409        N  0.76747500  0.96099282  0.19802997    -0.07000
N410        N  0.73969350  0.95680452  0.19818381    -0.63300
N411        N  0.82846224  0.94230526  0.23198303    -0.05800
N412        N  0.84180005  0.92670316  0.25188169    -0.64000
N413        N  0.81370122  0.96298978  0.24412883    -0.06500
N414        N  0.81671436  0.96226447  0.27215589    -0.63600
N415        N  0.78094462  0.93998389  0.18511816    -0.05400
N416        N  0.76223963  0.92082223  0.17597899    -0.64300
Mn417      Mn  0.78971751  0.99480689  0.21966872     1.10700
C418        C  0.73650019  0.93173124  0.18439207     0.98700
C419        C  0.83431223  0.93972046  0.27685569     0.98800
N420        N  0.89047433  0.95757091  0.16668337    -0.06500
N421        N  0.91721197  0.94783288  0.16392964    -0.61900
N422        N  0.82868767  0.93915162  0.13717889    -0.05800
N423        N  0.81915992  0.91782726  0.12164207    -0.58600
N424        N  0.84323461  0.95736192  0.12111452    -0.07200
N425        N  0.84420435  0.94803402  0.09423357    -0.61500
N426        N  0.87555734  0.93962788  0.18267786    -0.06100
N427        N  0.89175072  0.91800789  0.19125968    -0.58600
Mn428      Mn  0.86782357  0.99262679  0.14206022     1.20200
Mn429      Mn  0.82845837  0.93955473  0.18433735     1.10100
Cl430      Cl  0.82884288  0.99356902  0.18131409    -0.86600
C431        C  0.91768445  0.92328595  0.17981593     0.95700
C432        C  0.82862776  0.92352422  0.09497494     0.95500
N433        N  0.76388125  0.18852943  0.03146621    -0.06800
N434        N  0.73593618  0.18783274  0.03443026    -0.58900
N435        N  0.82243708  0.22159439  0.05422222    -0.06500
N436        N  0.83098315  0.24054458  0.07344112    -0.61000
N437        N  0.80861013  0.23472315  0.03344243    -0.06100
N438        N  0.80729252  0.26240391  0.03764204    -0.58900
N439        N  0.77670072  0.17428957  0.05225004    -0.05700
N440        N  0.75742620  0.16355499  0.07009046    -0.61400
C441        C  0.73204495  0.17220875  0.05847359     0.95400
C442        C  0.82109487  0.26589600  0.06260179     0.95200
N443        N  0.88673651  0.15900932  0.03579022    -0.07000
N444        N  0.91375864  0.15763769  0.04478864    -0.59500
N445        N  0.82593007  0.12689737  0.05355474    -0.05100
N446        N  0.81797465  0.11038922  0.07501103    -0.60700
N447        N  0.84133991  0.11210399  0.03501927    -0.07000
N448        N  0.84451837  0.08519701  0.04419629    -0.59700
N449        N  0.87112623  0.17382106  0.05417124    -0.04700
N450        N  0.88708092  0.18308992  0.07537190    -0.60800
Mn451      Mn  0.82408532  0.17411860  0.05426952     1.18400
C452        C  0.91356311  0.17319015  0.06935855     0.97500
C453        C  0.82932151  0.08444165  0.06902920     0.98100
N454        N  0.81137630  0.23714291  0.96852503    -0.07000
N455        N  0.81391173  0.26511080  0.96796286    -0.63300
N456        N  0.77918368  0.17856636  0.94495318    -0.05800
N457        N  0.76052236  0.16802771  0.92640046    -0.64000
N458        N  0.76560696  0.19161454  0.96575555    -0.06500
N459        N  0.73777881  0.19051874  0.96225997    -0.63600
N460        N  0.82657804  0.22512951  0.94815562    -0.05400
N461        N  0.83987750  0.24518238  0.93291764    -0.64300
Mn462      Mn  0.78721881  0.21296096  0.99971848     1.10700
C463        C  0.83175015  0.27005368  0.94590124     0.98700
C464        C  0.73488103  0.17599007  0.93769364     0.98800
N465        N  0.84071647  0.11414434  0.96493321    -0.06500
N466        N  0.84052749  0.08691461  0.95669059    -0.61900
N467        N  0.87348113  0.17534078  0.94779779    -0.05800
N468        N  0.89031658  0.18429630  0.92713561    -0.58600
N469        N  0.88800523  0.15935084  0.96626254    -0.07200
N470        N  0.91512321  0.15682433  0.95786660    -0.61500
N471        N  0.82651505  0.13015140  0.94616238    -0.06100
N472        N  0.81605270  0.11425767  0.92551442    -0.58600
Mn473      Mn  0.86502717  0.13521344  0.00043721     1.20200
Mn474      Mn  0.82657974  0.17736178  0.94587554     1.10100
Cl475      Cl  0.82606775  0.17447311  0.00008277    -0.86600
C476        C  0.82463095  0.08742459  0.93220954     0.95700
C477        C  0.91618897  0.17299162  0.93360377     0.95500
N478        N  0.03090924  0.79688520  0.75676974    -0.06800
N479        N  0.03380731  0.79583550  0.72878005    -0.58900
N480        N  0.05251977  0.76370278  0.81665415    -0.06500
N481        N  0.07016243  0.74393251  0.82741228    -0.61000
N482        N  0.03091660  0.75130767  0.80365997    -0.06100
N483        N  0.03318466  0.72326558  0.80527080    -0.58900
N484        N  0.05239335  0.81045192  0.76869577    -0.05700
N485        N  0.07061938  0.81897501  0.74851111    -0.61400
C486        C  0.05848316  0.80967068  0.72362375     0.95400
C487        C  0.05763824  0.71873182  0.82012197     0.95200
N488        N  0.03872509  0.82783240  0.87997362    -0.07000
N489        N  0.04903492  0.83019033  0.90649440    -0.59500
N490        N  0.05557289  0.85887702  0.81783182    -0.05100
N491        N  0.07723986  0.87466901  0.80923152    -0.60700
N492        N  0.03780771  0.87426489  0.83370878    -0.07000
N493        N  0.04768861  0.90079602  0.83635581    -0.59700
N494        N  0.05662445  0.81259717  0.86414276    -0.04700
N495        N  0.07879144  0.80406920  0.87959757    -0.60800
Mn496      Mn  0.05496142  0.81144954  0.81671425     1.18400
C497        C  0.07388186  0.81480167  0.90596664     0.97500
C498        C  0.07213148  0.90076846  0.82054527     0.98100
N499        N  0.96401827  0.75352228  0.80447924    -0.07000
N500        N  0.95691745  0.72634146  0.80256276    -0.63300
N501        N  0.94519092  0.81455206  0.77270109    -0.05800
N502        N  0.92440200  0.82264551  0.75490636    -0.64000
N503        N  0.96469959  0.79973511  0.75876455    -0.06500
N504        N  0.95782795  0.79737811  0.73152244    -0.63600
N505        N  0.94493128  0.76782973  0.81943249    -0.05400
N506        N  0.92442810  0.75049405  0.82840980    -0.64300
Mn507      Mn  0.99781949  0.77525373  0.78089089     1.10700
C508        C  0.93237754  0.72468377  0.81772248     0.98700
C509        C  0.93290674  0.81197488  0.72920913     0.98800
N510        N  0.96743416  0.87639289  0.83638944    -0.06500
N511        N  0.95816377  0.90325903  0.83962597    -0.61900
N512        N  0.94882903  0.81515098  0.86744608    -0.05800
N513        N  0.92781890  0.80655968  0.88405576    -0.58600
N514        N  0.96806781  0.82937758  0.88239618    -0.07200
N515        N  0.95968630  0.83116124  0.90964827    -0.61500
N516        N  0.94856519  0.86178346  0.82137622    -0.06100
N517        N  0.92694679  0.87824168  0.81366844    -0.58600
Mn518      Mn  0.00303465  0.85262733  0.85884611     1.20200
Mn519      Mn  0.94661338  0.81501893  0.82035242     1.10100
Cl520      Cl  0.00066595  0.81371552  0.81932014    -0.86600
C521        C  0.93298309  0.90401253  0.82480837     0.95700
C522        C  0.93464892  0.81633174  0.91028627     0.95500
N523        N  0.88363297  0.03002826  0.83929236    -0.06800
N524        N  0.91054134  0.03905692  0.84207705    -0.58900
N525        N  0.82114425  0.04911131  0.86825483    -0.06500
N526        N  0.81270388  0.07078109  0.88412943    -0.61000
N527        N  0.83574743  0.03037702  0.88396849    -0.06100
N528        N  0.83779049  0.03959071  0.91080729    -0.58900
N529        N  0.86883931  0.04866042  0.82368527    -0.05700
N530        N  0.88521419  0.06990368  0.81526562    -0.61400
C531        C  0.91115822  0.06384364  0.82648879     0.95400
C532        C  0.82288012  0.06467067  0.91056717     0.95200
N533        N  0.76199722  0.02936272  0.80333860    -0.07000
N534        N  0.73468852  0.03452299  0.79900228    -0.59500
N535        N  0.82317907  0.04870787  0.77311681    -0.05100
N536        N  0.83243577  0.06763471  0.75395922    -0.60700
N537        N  0.80974952  0.02789018  0.76003762    -0.07000
N538        N  0.80923825  0.03195430  0.73218559    -0.59700
N539        N  0.77415198  0.05025219  0.81748239    -0.04700
N540        N  0.75484065  0.07056554  0.82293618    -0.60800
Mn541      Mn  0.82186748  0.04979968  0.82087009     1.18400
C542        C  0.73029668  0.06020278  0.81108640     0.97500
C543        C  0.82354866  0.05656093  0.72852378     0.98100
N544        N  0.83550545  0.96024573  0.88556543    -0.07000
N545        N  0.83833228  0.95079833  0.91244585    -0.63300
N546        N  0.86731055  0.94069782  0.82548097    -0.05800
N547        N  0.88366295  0.91961651  0.81637964    -0.64000
N548        N  0.88264831  0.95937312  0.84002957    -0.06500
N549        N  0.90983515  0.95059547  0.84154104    -0.63600
N550        N  0.82000494  0.94200139  0.87060009    -0.05400
N551        N  0.81183826  0.92048326  0.88698138    -0.64300
Mn552      Mn  0.86016197  0.99500714  0.86293530     1.10700
C553        C  0.82301885  0.92611270  0.91305141     0.98700
C554        C  0.91005893  0.92589430  0.82619408     0.98800
N555        N  0.80898069  0.96236987  0.76164750    -0.06500
N556        N  0.81203023  0.95978339  0.73385101    -0.61900
N557        N  0.77192174  0.94365341  0.82039991    -0.05800
N558        N  0.75080349  0.92727318  0.83020060    -0.58600
N559        N  0.76099809  0.96460187  0.80492798    -0.07200
N560        N  0.73300783  0.96335285  0.80384430    -0.61500
N561        N  0.82154711  0.94121057  0.77547968    -0.06100
N562        N  0.83364507  0.92338268  0.75691425    -0.58600
Mn563      Mn  0.78562006  0.99589167  0.78256589     1.20200
Mn564      Mn  0.82002504  0.94102559  0.82320550     1.10100
Cl565      Cl  0.82205813  0.99542451  0.82265244    -0.86600
C566        C  0.82738098  0.93551624  0.73100408     0.95700
C567        C  0.72655446  0.94032082  0.81975540     0.95500
N568        N  0.84080815  0.87406734  0.03905395    -0.06800
N569        N  0.84257095  0.90103047  0.04784204    -0.58900
N570        N  0.87340390  0.81273982  0.05677318    -0.06500
N571        N  0.89008254  0.80389780  0.07783163    -0.61000
N572        N  0.88796239  0.82831839  0.03814573    -0.06100
N573        N  0.91501188  0.83060609  0.04696346    -0.58900
N574        N  0.82664863  0.85856601  0.05806608    -0.05700
N575        N  0.81822367  0.87469591  0.07954890    -0.61400
C576        C  0.82795017  0.90106622  0.07297475     0.95400
C577        C  0.91596015  0.81479750  0.07159305     0.95200
N578        N  0.81225523  0.75035578  0.03712337    -0.07000
N579        N  0.81338354  0.72231927  0.04018966    -0.59500
N580        N  0.77892061  0.81017348  0.05923992    -0.05100
N581        N  0.76012974  0.82022622  0.07807545    -0.60700
N582        N  0.76560518  0.79580600  0.03919160    -0.07000
N583        N  0.73788529  0.79531852  0.04372355    -0.59700
N584        N  0.82708690  0.76316400  0.05721514    -0.04700
N585        N  0.83905746  0.74368878  0.07445916    -0.60800
Mn586      Mn  0.82651424  0.81119086  0.05851609     1.18400
C587        C  0.83015798  0.71826406  0.06343922     0.97500
C588        C  0.73466079  0.81058268  0.06787800     0.98100
N589        N  0.88622809  0.82953584  0.96759155    -0.07000
N590        N  0.91302697  0.83143601  0.95802325    -0.63300
N591        N  0.82341259  0.86084767  0.95085523    -0.05800
N592        N  0.81371594  0.87716171  0.92982082    -0.64000
N593        N  0.83905459  0.87588893  0.96886807    -0.06500
N594        N  0.84049229  0.90294536  0.95970359    -0.63600
N595        N  0.87053578  0.81496233  0.94924228    -0.05400
N596        N  0.88626546  0.80627252  0.92754945    -0.64300
Mn597      Mn  0.86436210  0.85275451  0.00341641     1.10700
C598        C  0.91269754  0.81634225  0.93313713     0.98700
C599        C  0.82412291  0.90339512  0.93545128     0.98800
N600        N  0.76369423  0.79804112  0.97337255    -0.06500
N601        N  0.73577324  0.79735099  0.96986542    -0.61900
N602        N  0.82357490  0.76695291  0.95059856    -0.05800
N603        N  0.83546102  0.74881241  0.93242312    -0.58600
N604        N  0.81041772  0.75300150  0.97115648    -0.07200
N605        N  0.81297158  0.72525262  0.96776739    -0.61500
N606        N  0.77601265  0.81236570  0.95249659    -0.06100
N607        N  0.75646167  0.82154982  0.93393203    -0.58600
Mn608      Mn  0.78785361  0.77418328  0.00521228     1.20200
Mn609      Mn  0.82332528  0.81386382  0.95022354     1.10100
Cl610      Cl  0.82584850  0.81338044  0.00438521    -0.86600
C611        C  0.73147571  0.81208719  0.94532428     0.95700
C612        C  0.82849497  0.72296367  0.94359330     0.95500
C613        C  0.91645464  0.69775157  0.82096087    -0.20500
C614        C  0.91051442  0.68636781  0.84830008     0.35700
C615        C  0.90300156  0.65736394  0.85073805    -0.26500
C616        C  0.90130220  0.63980334  0.82638034     0.02100
C617        C  0.90434206  0.65197617  0.79889608     0.26900
C618        C  0.91196703  0.68095592  0.79645454    -0.25600
N619        N  0.91487369  0.70340028  0.87352455    -0.83000
H620        H  0.90072161  0.64778864  0.87182994     0.12700
C621        C  0.90231341  0.60834953  0.83049718     0.02100
N622        N  0.90158906  0.63446717  0.77376286    -0.81600
H623        H  0.91626874  0.68999976  0.77544270     0.17600
C624        C  0.87968895  0.59086027  0.82159948    -0.26400
C625        C  0.87962029  0.56142663  0.82829917     0.35600
C626        C  0.90229285  0.54950045  0.84494980    -0.20400
C627        C  0.92598309  0.56685007  0.85121469    -0.25700
C628        C  0.92640945  0.59588326  0.84386192     0.27000
H629        H  0.86160586  0.60026413  0.81025947     0.12700
N630        N  0.85583219  0.54451937  0.81874018    -0.83000
H631        H  0.94318327  0.55909047  0.86440652     0.17600
N632        N  0.95074351  0.61321365  0.85117810    -0.81600
H633        H  0.83746441  0.55183191  0.82925424     0.33200
H634        H  0.85858417  0.52288339  0.82409920     0.37700
H635        H  0.96663216  0.60090259  0.86135318     0.33200
H636        H  0.95968533  0.62068086  0.83201449     0.29900
H637        H  0.90431825  0.64679562  0.75519613     0.33200
H638        H  0.91827809  0.61936851  0.77408853     0.29900
H639        H  0.89974394  0.72003321  0.87308417     0.37700
H640        H  0.91067435  0.69137936  0.89202374     0.33200
C641        C  0.87225129  0.55297215  0.89787355    -0.20500
C642        C  0.89285376  0.57160498  0.90988794     0.35700
C643        C  0.88528619  0.59989411  0.91481820    -0.26500
C644        C  0.85763446  0.60984286  0.90888439     0.02100
C645        C  0.83679634  0.59138662  0.89761855     0.26900
C646        C  0.84436667  0.56284390  0.89221122    -0.25600
N647        N  0.92184293  0.56309353  0.91637684    -0.83000
H648        H  0.90113966  0.61432869  0.92359473     0.12700
C649        C  0.85056156  0.63911693  0.91720311     0.02100
N650        N  0.80826474  0.60173648  0.89178034    -0.81600
H651        H  0.82883670  0.54843920  0.88287458     0.17600
C652        C  0.84343490  0.65953026  0.89616292    -0.26400
C653        C  0.83751382  0.68794790  0.90390340     0.35600
C654        C  0.83833340  0.69529164  0.93315011    -0.20400
C655        C  0.84591072  0.67484738  0.95396238    -0.25700
C656        C  0.85210319  0.64675683  0.94628692     0.27000
H657        H  0.84263760  0.65324754  0.87382150     0.12700
N658        N  0.82947333  0.70883786  0.88253681    -0.83000
H659        H  0.84656502  0.68075338  0.97642748     0.17600
N660        N  0.85973595  0.62582448  0.96784097    -0.81600
H661        H  0.82889388  0.69944771  0.86222082     0.33200
H662        H  0.84564468  0.72420523  0.88176465     0.37700
H663        H  0.86012724  0.63510293  0.98821309     0.33200
H664        H  0.84366835  0.61031920  0.96822925     0.29900
H665        H  0.79566460  0.58537895  0.88326641     0.33200
H666        H  0.79899593  0.60743433  0.91135810     0.29900
H667        H  0.92480487  0.56487516  0.93853225     0.37700
H668        H  0.92589977  0.54184580  0.91095856     0.33200
C669        C  0.91196348  0.44279712  0.86054238    -0.20500
C670        C  0.93737490  0.43096726  0.87220094     0.35700
C671        C  0.94308725  0.40171738  0.86837370    -0.26500
C672        C  0.92447117  0.38472791  0.85229923     0.02100
C673        C  0.90013213  0.39701777  0.83900903     0.26900
C674        C  0.89396717  0.42599362  0.84357483    -0.25600
N675        N  0.95777337  0.44876282  0.88671327    -0.83000
H676        H  0.96241621  0.39221136  0.87733690     0.12700
C677        C  0.93236830  0.35474425  0.84708050     0.02100
N678        N  0.88138574  0.37987320  0.82168620    -0.81600
H679        H  0.87460222  0.43542476  0.83460719     0.17600
C680        C  0.92497598  0.33332852  0.86697037    -0.26400
C681        C  0.93175658  0.30438889  0.86169695     0.35600
C682        C  0.94591013  0.29721646  0.83598561    -0.20400
C683        C  0.95422392  0.31906278  0.81689713    -0.25700
C684        C  0.94797715  0.34775909  0.82238489     0.27000
H685        H  0.91430111  0.33926646  0.88671312     0.12700
N686        N  0.92509953  0.28261554  0.88252086    -0.83000
H687        H  0.96579126  0.31380245  0.79746589     0.17600
N688        N  0.95838206  0.36994931  0.80359019    -0.81600
H689        H  0.91461644  0.29161486  0.90016718     0.33200
H690        H  0.94452570  0.27423319  0.89019578     0.37700
H691        H  0.97057046  0.36118296  0.78698719     0.33200
H692        H  0.94077603  0.38008280  0.79391457     0.29900
H693        H  0.86400293  0.39212939  0.81427822     0.33200
H694        H  0.89265956  0.37329373  0.80352055     0.29900
H695        H  0.94786605  0.45878201  0.90395351     0.37700
H696        H  0.97454658  0.43631133  0.89518417     0.33200
C697        C  0.87020419  0.44580639  0.90529389    -0.20500
C698        C  0.88539158  0.43011042  0.92658025     0.35700
C699        C  0.87765814  0.40174802  0.93234461    -0.26500
C700        C  0.85465351  0.38873583  0.91809661     0.02100
C701        C  0.83776690  0.40536879  0.89913503     0.26900
C702        C  0.84592369  0.43354833  0.89258392    -0.25600
N703        N  0.90855672  0.44201863  0.94285094    -0.83000
H704        H  0.89022521  0.38952258  0.94776409     0.12700
C705        C  0.84868933  0.35796674  0.92413236     0.02100
N706        N  0.81231130  0.39383453  0.88661458    -0.81600
H707        H  0.83386428  0.44557726  0.87661420     0.17600
C708        C  0.84678335  0.34914114  0.95280649    -0.26400
C709        C  0.84297329  0.32033800  0.96004439     0.35600
C710        C  0.84066092  0.29950843  0.93828541    -0.20400
C711        C  0.84341299  0.30797782  0.90952779    -0.25700
C712        C  0.84724997  0.33710062  0.90219158     0.27000
H713        H  0.84822031  0.36479812  0.96984768     0.12700
N714        N  0.84167932  0.31229397  0.98974054    -0.83000
H715        H  0.84150951  0.29207826  0.89278392     0.17600
N716        N  0.84954557  0.34553045  0.87263786    -0.81600
H717        H  0.86069469  0.31869944  0.99964487     0.33200
H718        H  0.82474014  0.32357430  0.99919363     0.37700
H719        H  0.84906014  0.32758383  0.85925203     0.33200
H720        H  0.86953276  0.35486081  0.87000313     0.29900
H721        H  0.79502587  0.40690938  0.89256026     0.33200
H722        H  0.81433030  0.39503967  0.86430789     0.29900
H723        H  0.91265720  0.46313978  0.93674421     0.37700
H724        H  0.92697173  0.42994091  0.93868267     0.33200
C725        C  0.94728749  0.68784860  0.17566117    -0.20500
C726        C  0.96755742  0.66514731  0.17566132     0.35700
C727        C  0.95838821  0.63676242  0.17431624    -0.26500
C728        C  0.92930488  0.63001830  0.17159298     0.02100
C729        C  0.90879850  0.65266812  0.17114906     0.26900
C730        C  0.91806910  0.68137886  0.17310896    -0.25600
N731        N  0.99773324  0.67074042  0.17674705    -0.83000
H732        H  0.97435189  0.61981260  0.17555503     0.12700
C733        C  0.92109869  0.59923007  0.16885231     0.02100
N734        N  0.87871024  0.64653941  0.16888277    -0.81600
H735        H  0.90242495  0.69864958  0.17342084     0.17600
C736        C  0.89871785  0.58811310  0.18567076    -0.26400
C737        C  0.88940230  0.55974106  0.18221369     0.35600
C738        C  0.90333383  0.54191460  0.16227054    -0.20400
C739        C  0.92702745  0.55213431  0.14711847    -0.25700
C740        C  0.93565259  0.58067829  0.14972015     0.27000
H741        H  0.88814233  0.60171973  0.20120576     0.12700
N742        N  0.86519337  0.54919423  0.19799805    -0.83000
H743        H  0.93789481  0.53822777  0.13202370     0.17600
N744        N  0.95843126  0.59097249  0.13193974    -0.81600
H745        H  0.85701675  0.56509304  0.21148709     0.33200
H746        H  0.87245910  0.53249674  0.21124504     0.37700
H747        H  0.95265029  0.58790466  0.11049779     0.33200
H748        H  0.97669515  0.57850111  0.13616829     0.29900
H749        H  0.86664857  0.66549741  0.16814352     0.33200
H750        H  0.87526006  0.63606966  0.14945755     0.29900
H751        H  0.00627981  0.66034144  0.19479355     0.37700
H752        H  0.00724489  0.66180817  0.15852584     0.33200
C753        C  0.86425336  0.54306681  0.11604507    -0.20500
C754        C  0.88096927  0.55601780  0.09444346     0.35700
C755        C  0.87579832  0.58478293  0.08652390    -0.26500
C756        C  0.85445842  0.60118986  0.10019622     0.02100
C757        C  0.83754497  0.58791911  0.12155456     0.26900
C758        C  0.84230167  0.55906012  0.12891064    -0.25600
N759        N  0.90359857  0.54024861  0.08094812    -0.83000
H760        H  0.88862424  0.59432836  0.06969564     0.12700
C761        C  0.84904251  0.63170019  0.09140209     0.02100
N762        N  0.81617626  0.60400824  0.13668714    -0.81600
H763        H  0.82966940  0.54945332  0.14587379     0.17600
C764        C  0.82099286  0.64011192  0.08417827    -0.26400
C765        C  0.81436037  0.66850099  0.07631093     0.35600
C766        C  0.83630116  0.68923140  0.07526869    -0.20400
C767        C  0.86442607  0.68102161  0.08242653    -0.25700
C768        C  0.87105305  0.65240572  0.09004805     0.27000
H769        H  0.80410552  0.62428911  0.08438148     0.12700
N770        N  0.78529296  0.67637059  0.06932342    -0.83000
H771        H  0.88149524  0.69660509  0.08109957     0.17600
N772        N  0.90017098  0.64450081  0.09613008    -0.81600
H773        H  0.77180038  0.65862517  0.07086056     0.33200
H774        H  0.77829652  0.69101213  0.08475566     0.37700
H775        H  0.91229153  0.64850943  0.07772055     0.33200
H776        H  0.90779261  0.65796279  0.11222937     0.29900
H777        H  0.82124249  0.60332509  0.15855338     0.33200
H778        H  0.79647081  0.59386179  0.13384952     0.29900
H779        H  0.89927257  0.53971264  0.05895032     0.37700
H780        H  0.92267660  0.55149694  0.08373758     0.33200
C781        C  0.87998253  0.43699134  0.18170009    -0.20500
C782        C  0.90204821  0.42869802  0.20127076     0.35700
C783        C  0.90873321  0.39940152  0.20422639    -0.26500
C784        C  0.89010389  0.37857335  0.19339679     0.02100
C785        C  0.86266658  0.38770642  0.18416318     0.26900
C786        C  0.85763758  0.41701052  0.17946217    -0.25600
N787        N  0.91230210  0.44743586  0.22323444    -0.83000
H788        H  0.92774405  0.39284014  0.21601291     0.12700
C789        C  0.90048734  0.34854611  0.18986303     0.02100
N790        N  0.83995957  0.36803586  0.17856367    -0.81600
H791        H  0.83670681  0.42389843  0.17243381     0.17600
C792        C  0.88804437  0.32578592  0.20516883    -0.26400
C793        C  0.89790495  0.29734245  0.20159379     0.35600
C794        C  0.92094392  0.29178435  0.18281092    -0.20400
C795        C  0.93324866  0.31448123  0.16751599    -0.25700
C796        C  0.92304171  0.34270156  0.17051757     0.27000
H797        H  0.87113950  0.33026462  0.22041441     0.12700
N798        N  0.88575743  0.27436500  0.21811695    -0.83000
H799        H  0.95134116  0.31019886  0.15356988     0.17600
N800        N  0.93548401  0.36553828  0.15396667    -0.81600
H801        H  0.86954168  0.28213220  0.23152189     0.33200
H802        H  0.87595657  0.26035962  0.20374267     0.37700
H803        H  0.95155934  0.35762135  0.14049861     0.33200
H804        H  0.91946761  0.37390291  0.14055921     0.29900
H805        H  0.84681433  0.35328945  0.16326201     0.33200
H806        H  0.83528554  0.35703946  0.19750313     0.29900
H807        H  0.90173184  0.46725571  0.22251577     0.37700
H808        H  0.93444378  0.44980051  0.22123196     0.33200
C809        C  0.85656860  0.43582303  0.12081441    -0.20500
C810        C  0.82748524  0.42734016  0.11908994     0.35700
C811        C  0.82124911  0.39922904  0.11065632    -0.26500
C812        C  0.84308262  0.38035111  0.10159409     0.02100
C813        C  0.87116736  0.39070852  0.09882633     0.26900
C814        C  0.87784972  0.41736861  0.11031663    -0.25600
N815        N  0.80412304  0.44578717  0.12743399    -0.83000
H816        H  0.79925904  0.39198510  0.11171655     0.12700
C817        C  0.83622958  0.35027198  0.09416169     0.02100
N818        N  0.89265996  0.37438913  0.08385690    -0.81600
H819        H  0.89986202  0.42375160  0.11059324     0.17600
C820        C  0.81231279  0.34499874  0.07685761    -0.26400
C821        C  0.80612310  0.31728909  0.06771113     0.35600
C822        C  0.82449170  0.29427968  0.07552996    -0.20400
C823        C  0.84747188  0.29914824  0.09398576    -0.25700
C824        C  0.85343019  0.32683769  0.10351636     0.27000
H825        H  0.79869335  0.36255612  0.06970594     0.12700
N826        N  0.78108064  0.31269633  0.05050567    -0.83000
H827        H  0.86143818  0.28157200  0.10040068     0.17600
N828        N  0.87705398  0.33085343  0.12263182    -0.81600
H829        H  0.76319359  0.31962593  0.06211938     0.33200
H830        H  0.78259075  0.32543802  0.03205367     0.37700
H831        H  0.87382571  0.31767128  0.14052433     0.33200
H832        H  0.89563907  0.32353263  0.11241845     0.29900
H833        H  0.91214078  0.38530181  0.08345259     0.33200
H834        H  0.88594599  0.37256271  0.06251366     0.29900
H835        H  0.81133017  0.46583282  0.13400779     0.37700
H836        H  0.79401250  0.43645045  0.14512674     0.33200
C837        C  0.86427016  0.50233450  0.93385171    -0.20500
C838        C  0.83722534  0.49399854  0.94481611     0.35700
C839        C  0.83329371  0.49234041  0.97485180    -0.26500
C840        C  0.85522377  0.50045587  0.99391102     0.02100
C841        C  0.88070945  0.51181154  0.98253641     0.26900
C842        C  0.88531322  0.51150609  0.95307361    -0.25600
N843        N  0.81372423  0.48670368  0.92634527    -0.83000
H844        H  0.81337110  0.48401001  0.98326552     0.12700
C845        C  0.85355926  0.49421561  0.02530327     0.02100
N846        N  0.90249607  0.52298902  0.00101688    -0.81600
H847        H  0.90631495  0.51702161  0.94540384     0.17600
C848        C  0.87669528  0.47945188  0.03776177    -0.26400
C849        C  0.87994655  0.47764321  0.06742600     0.35600
C850        C  0.85804483  0.48764139  0.08569660    -0.20400
C851        C  0.83360272  0.50066476  0.07333606    -0.25700
C852        C  0.83153449  0.50480264  0.04324009     0.27000
H853        H  0.89373951  0.47113740  0.02430574     0.12700
N854        N  0.90693462  0.46824396  0.07877525    -0.83000
H855        H  0.81710257  0.50921235  0.08727378     0.17600
N856        N  0.80802833  0.52080249  0.03106333    -0.81600
H857        H  0.91183711  0.44832200  0.06978742     0.33200
H858        H  0.92263260  0.48255710  0.07180220     0.37700
H859        H  0.79387552  0.52734777  0.04716919     0.33200
H860        H  0.81640917  0.53948305  0.02198031     0.29900
H861        H  0.92146695  0.51148003  0.99746283     0.33200
H862        H  0.90605019  0.54434453  0.99517218     0.29900
H863        H  0.81904646  0.49009675  0.90486031     0.37700
H864        H  0.79694562  0.50101373  0.93072150     0.33200
C865        C  0.11154889  0.54872542  0.14811961    -0.20500
C866        C  0.13513230  0.56067466  0.16313270     0.35700
C867        C  0.13372456  0.58934245  0.17212486    -0.26500
C868        C  0.10929284  0.60605922  0.16660954     0.02100
C869        C  0.08505774  0.59350660  0.15426809     0.26900
C870        C  0.08626566  0.56499323  0.14550351    -0.25600
N871        N  0.16079564  0.54452306  0.16933459    -0.83000
H872        H  0.15209847  0.59886777  0.18254658     0.12700
C873        C  0.10899728  0.63702265  0.17246086     0.02100
N874        N  0.05952623  0.61016920  0.14946904    -0.81600
H875        H  0.06802218  0.55677888  0.13433213     0.17600
C876        C  0.11214689  0.65613167  0.14932311    -0.26400
C877        C  0.10494647  0.68529509  0.15215966     0.35600
C878        C  0.09399953  0.69503348  0.17854650    -0.20400
C879        C  0.09326890  0.67631109  0.20225486    -0.25700
C880        C  0.10054829  0.64728647  0.19944251     0.27000
H881        H  0.11843091  0.64784651  0.12856903     0.12700
N882        N  0.10643134  0.70431557  0.12786549    -0.83000
H883        H  0.08528800  0.68400712  0.22266255     0.17600
N884        N  0.09793035  0.62793382  0.22339771    -0.81600
H885        H  0.11372761  0.69332074  0.10976914     0.33200
H886        H  0.12191051  0.71973579  0.13244912     0.37700
H887        H  0.09172656  0.63905356  0.24182658     0.33200
H888        H  0.08138436  0.61367262  0.21878664     0.29900
H889        H  0.04256900  0.60003281  0.15996508     0.33200
H890        H  0.05509887  0.61025180  0.12746522     0.29900
H891        H  0.15947358  0.52351856  0.16190413     0.37700
H892        H  0.17784705  0.55431367  0.15866065     0.33200
C893        C  0.14274393  0.55044311  0.09502200    -0.20500
C894        C  0.12333222  0.57128228  0.08442177     0.35700
C895        C  0.13300691  0.59873752  0.07883530    -0.26500
C896        C  0.16155332  0.60584499  0.08367282     0.02100
C897        C  0.18133497  0.58519591  0.09360274     0.26900
C898        C  0.17171864  0.55726818  0.09885684    -0.25600
N899        N  0.09375358  0.56492165  0.07942646    -0.83000
H900        H  0.11802314  0.61480742  0.07086297     0.12700
C901        C  0.16983141  0.63501255  0.07659371     0.02100
N902        N  0.21069970  0.59280409  0.09867223    -0.81600
H903        H  0.18644328  0.54111842  0.10707670     0.17600
C904        C  0.17398086  0.65483291  0.09867597    -0.26400
C905        C  0.17732126  0.68401354  0.09226175     0.35600
C906        C  0.17597245  0.69289407  0.06342371    -0.20400
C907        C  0.17161036  0.67288282  0.04151293    -0.25700
C908        C  0.16888750  0.64390149  0.04779631     0.27000
H909        H  0.17418837  0.64753484  0.12079222     0.12700
N910        N  0.18267679  0.70438384  0.11461726    -0.83000
H911        H  0.17095982  0.67986523  0.01928169     0.17600
N912        N  0.16472636  0.62338648  0.02522378    -0.81600
H913        H  0.18273392  0.69420965  0.13465706     0.33200
H914        H  0.20332687  0.71241818  0.11155224     0.37700
H915        H  0.16428149  0.63355748  0.00517618     0.33200
H916        H  0.18252670  0.60962531  0.02519408     0.29900
H917        H  0.22228071  0.57509792  0.10640548     0.33200
H918        H  0.21972611  0.59834246  0.07891041     0.29900
H919        H  0.08949152  0.56894610  0.05773658     0.37700
H920        H  0.08130680  0.57969213  0.09074416     0.33200
C921        C  0.06450765  0.29722623  0.15895405    -0.20500
C922        C  0.09302007  0.30573505  0.15425103     0.35700
C923        C  0.09871613  0.33485681  0.14917779    -0.26500
C924        C  0.07648693  0.35534454  0.14925931     0.02100
C925        C  0.04793694  0.34665763  0.15320419     0.26900
C926        C  0.04225610  0.31766354  0.15774129    -0.25600
N927        N  0.11604568  0.28514376  0.15561933    -0.83000
H928        H  0.12057885  0.34173629  0.14565989     0.12700
C929        C  0.08321030  0.38584838  0.14481002     0.02100
N930        N  0.02492028  0.36737925  0.15318358    -0.81600
H931        H  0.02028074  0.31108939  0.16120780     0.17600
C932        C  0.07018654  0.40045129  0.12189033    -0.26400
C933        C  0.07688901  0.42888401  0.11578503     0.35600
C934        C  0.09693194  0.44315955  0.13342507    -0.20400
C935        C  0.10877899  0.42906471  0.15728529    -0.25700
C936        C  0.10228231  0.40034873  0.16308030     0.27000
H937        H  0.05540563  0.38930465  0.10794646     0.12700
N938        N  0.06331832  0.44223955  0.09137505    -0.83000
H939        H  0.12413979  0.44016475  0.17061263     0.17600
N940        N  0.11526286  0.38572648  0.18707574    -0.81600
H941        H  0.06783193  0.42985118  0.07332565     0.33200
H942        H  0.07186139  0.46242173  0.08728924     0.37700
H943        H  0.12909427  0.39937535  0.19805833     0.33200
H944        H  0.09888214  0.38035219  0.20138810     0.29900
H945        H  0.00521507  0.35737804  0.15624434     0.33200
H946        H  0.02796864  0.38091160  0.17077508     0.29900
H947        H  0.11729055  0.27756218  0.17674671     0.37700
H948        H  0.13563118  0.29499841  0.15127693     0.33200
C949        C  0.17597988  0.29806099  0.06039978    -0.20500
C950        C  0.15013366  0.30524694  0.07445588     0.35700
C951        C  0.14334465  0.33434188  0.07911038    -0.26500
C952        C  0.16217854  0.35609271  0.07059175     0.02100
C953        C  0.18819879  0.34897501  0.05720326     0.26900
C954        C  0.19477279  0.32009903  0.05212815    -0.25600
N955        N  0.13054564  0.28324113  0.08314708    -0.83000
H956        H  0.12344159  0.34014000  0.08961023     0.12700
C957        C  0.15522222  0.38628573  0.07705948     0.02100
N958        N  0.20781702  0.37116438  0.04889224    -0.81600
H959        H  0.21473522  0.31481027  0.04147300     0.17600
C960        C  0.16935441  0.39945365  0.09991881    -0.26400
C961        C  0.16297260  0.42770078  0.10758877     0.35600
C962        C  0.14188868  0.44316564  0.09190566    -0.20400
C963        C  0.12912360  0.43059317  0.06780508    -0.25700
C964        C  0.13539229  0.40206374  0.06037176     0.27000
H965        H  0.18519544  0.38747502  0.11220379     0.12700
N966        N  0.17830996  0.43990116  0.13132670    -0.83000
H967        H  0.11360701  0.44280057  0.05538581     0.17600
N968        N  0.12144870  0.38888789  0.03634268    -0.81600
H969        H  0.17285105  0.42840679  0.14980652     0.33200
H970        H  0.17256139  0.46126012  0.13481215     0.37700
H971        H  0.10720217  0.40332641  0.02655045     0.33200
H972        H  0.13721480  0.38411688  0.02113080     0.29900
H973        H  0.22619171  0.36232908  0.03951444     0.33200
H974        H  0.19778773  0.38366907  0.03307052     0.29900
H975        H  0.14036028  0.27156378  0.09969657     0.37700
H976        H  0.11197107  0.29231408  0.09189316     0.33200
C977        C  0.92883282  0.48469700  0.17710299    -0.20500
C978        C  0.94841097  0.46510865  0.16426704     0.35700
C979        C  0.97746311  0.46663803  0.17042372    -0.26500
C980        C  0.98858638  0.48983809  0.18545469     0.02100
C981        C  0.96963606  0.50884747  0.19950624     0.26900
C982        C  0.93997065  0.50452996  0.19696017    -0.25600
N983        N  0.94044226  0.44565173  0.14221899    -0.83000
H984        H  0.99198804  0.45222560  0.15928274     0.12700
C985        C  0.01804055  0.49762024  0.17737645     0.02100
N986        N  0.97947724  0.53360275  0.21476358    -0.81600
H987        H  0.92562240  0.51872316  0.20840568     0.17600
C988        C  0.02157239  0.50682343  0.14898709    -0.26400
C989        C  0.04829874  0.50578111  0.13590850     0.35600
C990        C  0.07265914  0.49807759  0.15217779    -0.20400
C991        C  0.06961804  0.49048301  0.18120134    -0.25700
C992        C  0.04216670  0.48953566  0.19386995     0.27000
H993        H  0.00292688  0.51229122  0.13605977     0.12700
N994        N  0.05051336  0.51180717  0.10576507    -0.83000
H995        H  0.08839843  0.48413220  0.19344517     0.17600
N996        N  0.03849730  0.47898898  0.22262665    -0.81600
H997        H  0.04222934  0.53233118  0.10182777     0.33200
H998        H  0.03721060  0.49754194  0.09491625     0.37700
H999        H  0.05832842  0.47334246  0.23155328     0.33200
H1000       H  0.03036645  0.49581221  0.23499060     0.29900
H1001       H  0.97189826  0.55174157  0.20379916     0.33200
H1002       H  0.00183181  0.53478013  0.21462193     0.29900
H1003       H  0.93025120  0.45743694  0.12610913     0.37700
H1004       H  0.92694233  0.43007127  0.15057135     0.33200
C1005       C  0.11511617  0.54353952  0.84014716    -0.20500
C1006       C  0.09236347  0.55433227  0.85733217     0.35700
C1007       C  0.08316118  0.58272367  0.85354053    -0.26500
C1008       C  0.09668569  0.60116596  0.83404894     0.02100
C1009       C  0.11917205  0.59047688  0.81683957     0.26900
C1010       C  0.12792867  0.56170318  0.81988804    -0.25600
N1011       N  0.07885223  0.53769340  0.87952873    -0.83000
H1012       H  0.06608279  0.59088919  0.86703332     0.12700
C1013       C  0.08683301  0.63152101  0.83195062     0.02100
N1014       N  0.13323184  0.60895164  0.79658809    -0.81600
H1015       H  0.14575416  0.55368194  0.80731029     0.17600
C1016       C  0.10635938  0.65408496  0.83560354    -0.26400
C1017       C  0.09757825  0.68298915  0.83264862     0.35600
C1018       C  0.06856981  0.68932183  0.82625513    -0.20400
C1019       C  0.04905628  0.66662492  0.82372040    -0.25700
C1020       C  0.05786923  0.63804523  0.82638057     0.27000
H1021       H  0.12858381  0.64908726  0.84040571     0.12700
N1022       N  0.11808064  0.70563995  0.83549099    -0.83000
H1023       H  0.02665424  0.67096651  0.81910837     0.17600
N1024       N  0.03737958  0.61562370  0.82259324    -0.81600
H1025       H  0.13824630  0.69728915  0.84097801     0.33200
H1026       H  0.12033422  0.71528184  0.81533663     0.37700
H1027       H  0.02821044  0.61793230  0.80222378     0.33200
H1028       H  0.02114805  0.61835977  0.83781485     0.29900
H1029       H  0.14958969  0.59791132  0.78594675     0.33200
H1030       H  0.11812579  0.61490740  0.78100669     0.29900
H1031       H  0.09052162  0.51908833  0.88393162     0.37700
H1032       H  0.07954175  0.54947348  0.89853871     0.33200
C1033       C  0.15974356  0.54337022  0.88157919    -0.20500
C1034       C  0.18115716  0.56098769  0.86942774     0.35700
C1035       C  0.18443871  0.58908857  0.87945052    -0.26500
C1036       C  0.16680662  0.60014858  0.90118846     0.02100
C1037       C  0.14614646  0.58231062  0.91399553     0.26900
C1038       C  0.14324725  0.55393115  0.90444255    -0.25600
N1039       N  0.19945895  0.55138225  0.84654883    -0.83000
H1040       H  0.20063043  0.60262437  0.86984508     0.12700
C1041       C  0.17112292  0.63010422  0.91102221     0.02100
N1042       N  0.12800379  0.59320090  0.93638433    -0.81600
H1043       H  0.12738421  0.54021880  0.91422865     0.17600
C1044       C  0.14964710  0.65097361  0.90656758    -0.26400
C1045       C  0.15357244  0.67964823  0.91529354     0.35600
C1046       C  0.17959553  0.68755515  0.92848347    -0.20400
C1047       C  0.20077403  0.66639427  0.93328355    -0.25700
C1048       C  0.19678625  0.63784411  0.92478679     0.27000
H1049       H  0.12975301  0.64479574  0.89636978     0.12700
N1050       N  0.13101427  0.70045820  0.91150434    -0.83000
H1051       H  0.22064899  0.67215807  0.94377401     0.17600
N1052       N  0.21859611  0.61654487  0.93027786    -0.81600
H1053       H  0.11332583  0.69118280  0.90145928     0.33200
H1054       H  0.12417419  0.70669582  0.93191556     0.37700
H1055       H  0.23624819  0.62568007  0.94053377     0.33200
H1056       H  0.21009505  0.60153000  0.94459435     0.29900
H1057       H  0.11358451  0.57749772  0.94316857     0.33200
H1058       H  0.14104674  0.59782827  0.95399180     0.29900
H1059       H  0.19534883  0.53016886  0.84098822     0.37700
H1060       H  0.22054801  0.55169748  0.85418630     0.33200
C1061       C  0.09088160  0.28799300  0.81334559    -0.20500
C1062       C  0.10657629  0.29695022  0.83750088     0.35700
C1063       C  0.11664233  0.32529996  0.83846320    -0.26500
C1064       C  0.11144118  0.34466216  0.81575682     0.02100
C1065       C  0.09767912  0.33501724  0.79079175     0.26900
C1066       C  0.08759324  0.30676294  0.78981985    -0.25600
N1067       N  0.11029269  0.27813371  0.86176316    -0.83000
H1068       H  0.12696837  0.33288482  0.85776858     0.12700
C1069       C  0.11606510  0.37574368  0.82027216     0.02100
N1070       N  0.09267084  0.35437538  0.76716619    -0.81600
H1071       H  0.07587724  0.29974683  0.77105500     0.17600
C1072       C  0.13651542  0.39096775  0.80425362    -0.26400
C1073       C  0.14111379  0.42045042  0.80915149     0.35600
C1074       C  0.12528638  0.43488323  0.83050534    -0.20400
C1075       C  0.10376869  0.41957022  0.84499243    -0.25700
C1076       C  0.09877226  0.39073000  0.83991416     0.27000
H1077       H  0.14924628  0.37985924  0.78832070     0.12700
N1078       N  0.16216248  0.43551388  0.79277352    -0.83000
H1079       H  0.09214095  0.42879361  0.86250192     0.17600
N1080       N  0.07584173  0.37721430  0.85520691    -0.81600
H1081       H  0.15622504  0.43441231  0.77116701     0.33200
H1082       H  0.18171801  0.42465130  0.79504514     0.37700
H1083       H  0.06184669  0.36809490  0.84032671     0.33200
H1084       H  0.08417718  0.36105057  0.86839545     0.29900
H1085       H  0.08238216  0.34385386  0.75032751     0.33200
H1086       H  0.07855351  0.37037175  0.77416756     0.29900
H1087       H  0.12373547  0.26131654  0.85536653     0.37700
H1088       H  0.12100993  0.28861860  0.87834486     0.33200
C1089       C  0.16488127  0.43579819  0.87713656    -0.20500
C1090       C  0.19177351  0.42364397  0.87061416     0.35700
C1091       C  0.19782916  0.39533841  0.87954946    -0.26500
C1092       C  0.17730681  0.37940898  0.89472111     0.02100
C1093       C  0.15086436  0.39215058  0.90203860     0.26900
C1094       C  0.14534207  0.42033156  0.89378591    -0.25600
N1095       N  0.21278036  0.44014163  0.85537710    -0.83000
H1096       H  0.21842442  0.38566423  0.87468860     0.12700
C1097       C  0.18332854  0.34966169  0.90394252     0.02100
N1098       N  0.12943337  0.37615773  0.91735371    -0.81600
H1099       H  0.12479482  0.42966766  0.89900766     0.17600
C1100       C  0.18081428  0.34332604  0.93316472    -0.26400
C1101       C  0.18158091  0.31515285  0.94298746     0.35600
C1102       C  0.18577309  0.29254050  0.92341198    -0.20400
C1103       C  0.18890371  0.29870499  0.89407171    -0.25700
C1104       C  0.18799561  0.32732455  0.88410446     0.27000
H1105       H  0.17734515  0.36044312  0.94845928     0.12700
N1106       N  0.17766591  0.30954632  0.97301579    -0.83000
H1107       H  0.19303231  0.28139464  0.87920342     0.17600
N1108       N  0.19240361  0.33381841  0.85424264    -0.81600
H1109       H  0.15782423  0.31807458  0.97916301     0.33200
H1110       H  0.19365326  0.32031427  0.98433206     0.37700
H1111       H  0.19491002  0.31495130  0.84247645     0.33200
H1112       H  0.17408831  0.34414651  0.84631461     0.29900
H1113       H  0.11109056  0.38868165  0.92085036     0.33200
H1114       H  0.12317169  0.35912438  0.90436569     0.29900
H1115       H  0.20454713  0.44500400  0.83504989     0.37700
H1116       H  0.23138838  0.42799157  0.85219378     0.33200
C1117       C  0.16552144  0.48769574  0.91094806    -0.20500
C1118       C  0.19058438  0.49670979  0.92506582     0.35700
C1119       C  0.19091897  0.49761044  0.95539796    -0.26500
C1120       C  0.16700813  0.48842712  0.97130106     0.02100
C1121       C  0.14312014  0.47704974  0.95678743     0.26900
C1122       C  0.14192978  0.47874542  0.92704365    -0.25600
N1123       N  0.21479617  0.50609710  0.90862983    -0.83000
H1124       H  0.20924070  0.50639343  0.96652605     0.12700
C1125       C  0.16432258  0.49441835  0.00242742     0.02100
N1126       N  0.11954658  0.46495480  0.97253406    -0.81600
H1127       H  0.12208525  0.47356461  0.91623058     0.17600
C1128       C  0.13946336  0.50891670  0.01112539    -0.26400
C1129       C  0.13075903  0.50844972  0.03965211     0.35600
C1130       C  0.14964484  0.49808026  0.06094162    -0.20400
C1131       C  0.17604398  0.48584962  0.05273153    -0.25700
C1132       C  0.18306557  0.48286035  0.02338328     0.27000
H1133       H  0.12510270  0.51787388  0.99504060     0.12700
N1134       N  0.10178216  0.51613170  0.04677115    -0.83000
H1135       H  0.19016782  0.47704896  0.06907001     0.17600
N1136       N  0.20825471  0.46721665  0.01484399    -0.81600
H1137       H  0.09156257  0.49767093  0.05414548     0.33200
H1138       H  0.09046917  0.52295074  0.02854413     0.37700
H1139       H  0.21950274  0.45988538  0.03289405     0.33200
H1140       H  0.20149622  0.44897849  0.00383896     0.29900
H1141       H  0.10363622  0.45767984  0.95857314     0.33200
H1142       H  0.12734396  0.44692657  0.98355237     0.29900
H1143       H  0.22240536  0.48846914  0.89707064     0.37700
H1144       H  0.23139637  0.51234693  0.92226944     0.33200
C1145       C  0.08883091  0.48738251  0.82852008    -0.20500
C1146       C  0.07596269  0.49742414  0.80293212     0.35700
C1147       C  0.04564533  0.49811317  0.80094127    -0.26500
C1148       C  0.02878089  0.48751550  0.82360491     0.02100
C1149       C  0.04219025  0.47487681  0.84762991     0.26900
C1150       C  0.07156475  0.47733218  0.85075770    -0.25600
N1151       N  0.09347834  0.50816182  0.78004284    -0.83000
H1152       H  0.03526276  0.50795644  0.78252717     0.12700
C1153       C  0.99800162  0.49474272  0.82622997     0.02100
N1154       N  0.02547684  0.46166978  0.86992851    -0.81600
H1155       H  0.08115098  0.47202114  0.87131110     0.17600
C1156       C  0.97703837  0.48154796  0.80916514    -0.26400
C1157       C  0.94770853  0.48322253  0.81689205     0.35600
C1158       C  0.94003869  0.49677505  0.84282904    -0.20400
C1159       C  0.96140279  0.50906326  0.85969547    -0.25700
C1160       C  0.98951818  0.51050515  0.85040566     0.27000
H1161       H  0.98360389  0.46915619  0.79068950     0.12700
N1162       N  0.92607771  0.47012272  0.79950169    -0.83000
H1163       H  0.95630481  0.51729757  0.88073565     0.17600
N1164       N  0.01002169  0.52647937  0.86668135    -0.81600
H1165       H  0.93534408  0.46075969  0.78137750     0.33200
H1166       H  0.91240371  0.48641839  0.79212792     0.37700
H1167       H  0.00314728  0.54785561  0.86718850     0.33200
H1168       H  0.01015156  0.51865040  0.88774665     0.29900
H1169       H  0.01568791  0.44368952  0.86098810     0.33200
H1170       H  0.03865144  0.45409650  0.88651068     0.29900
H1171       H  0.10585869  0.49103262  0.77248423     0.37700
H1172       H  0.08061186  0.51505101  0.76291616     0.33200
C1173       C  0.69641675  0.93071848  0.82296014    -0.20500
C1174       C  0.67311126  0.94954928  0.81649141     0.35700
C1175       C  0.64493076  0.93921921  0.81709242    -0.26500
C1176       C  0.63906178  0.91090522  0.82504954     0.02100
C1177       C  0.66224987  0.89229047  0.83141025     0.26900
C1178       C  0.69060030  0.90226253  0.83028917    -0.25600
N1179       N  0.67794378  0.97921565  0.80950539    -0.83000
H1180       H  0.62732792  0.95352002  0.81160880     0.12700
C1181       C  0.60860863  0.90156810  0.82768896     0.02100
N1182       N  0.65718243  0.86337421  0.83996465    -0.81600
H1183       H  0.70810050  0.88756721  0.83502086     0.17600
C1184       C  0.59958577  0.87605240  0.81465930    -0.26400
C1185       C  0.57202586  0.86503002  0.81974976     0.35600
C1186       C  0.55284311  0.88018610  0.83753875    -0.20400
C1187       C  0.56083078  0.90712578  0.84808505    -0.25700
C1188       C  0.58867304  0.91748825  0.84404899     0.27000
H1189       H  0.61444927  0.86414092  0.80136378     0.12700
N1190       N  0.56394480  0.83765463  0.80843765    -0.83000
H1191       H  0.54662697  0.91862117  0.86240819     0.17600
N1192       N  0.59723484  0.94305796  0.85853739    -0.81600
H1193       H  0.58061395  0.82888487  0.79627983     0.33200
H1194       H  0.54670014  0.84108834  0.79443849     0.37700
H1195       H  0.59424521  0.93993851  0.88056484     0.33200
H1196       H  0.58366370  0.95975725  0.85187874     0.29900
H1197       H  0.66720617  0.86067844  0.85979010     0.33200
H1198       H  0.66754488  0.84991340  0.82534916     0.29900
H1199       H  0.68612811  0.98906510  0.82785321     0.37700
H1200       H  0.65867717  0.98977731  0.80463524     0.33200
C1201       C  0.56182492  0.83571377  0.88054191    -0.20500
C1202       C  0.57297733  0.80740448  0.87861885     0.35700
C1203       C  0.60123981  0.80189119  0.88771131    -0.26500
C1204       C  0.61840940  0.82392334  0.89845662     0.02100
C1205       C  0.60743081  0.85202503  0.89991091     0.26900
C1206       C  0.57955876  0.85743127  0.89114233    -0.25600
N1207       N  0.55653158  0.78386833  0.86772424    -0.83000
H1208       H  0.60972090  0.78023049  0.88676592     0.12700
C1209       C  0.64701576  0.81740370  0.91007732     0.02100
N1210       N  0.62390210  0.87552563  0.91062381    -0.81600
H1211       H  0.57150543  0.87900594  0.89340740     0.17600
C1212       C  0.67039264  0.81413181  0.89153735    -0.26400
C1213       C  0.69856421  0.81354277  0.90230820     0.35600
C1214       C  0.70290162  0.81479293  0.93224629    -0.20400
C1215       C  0.67917863  0.81584094  0.95071964    -0.25700
C1216       C  0.65133332  0.81722029  0.93983948     0.27000
H1217       H  0.66664142  0.81263280  0.86867103     0.12700
N1218       N  0.72254616  0.81131198  0.88310488    -0.83000
H1219       H  0.68225624  0.81594200  0.97378057     0.17600
N1220       N  0.62734928  0.81850005  0.95898866    -0.81600
H1221       H  0.71555199  0.81123169  0.86178449     0.33200
H1222       H  0.73246090  0.79145931  0.88684783     0.37700
H1223       H  0.62980309  0.83633132  0.97222982     0.33200
H1224       H  0.62791322  0.80016864  0.97198728     0.29900
H1225       H  0.64265801  0.87730871  0.89864898     0.33200
H1226       H  0.62945162  0.87146647  0.93198272     0.29900
H1227       H  0.53624655  0.79042894  0.86078180     0.37700
H1228       H  0.56708163  0.77612308  0.84955449     0.33200
C1229       C  0.30456750  0.91427702  0.81808562    -0.20500
C1230       C  0.30835878  0.88438792  0.82187423     0.35700
C1231       C  0.33638803  0.87308812  0.82471222    -0.26500
C1232       C  0.36029401  0.89111876  0.82308079     0.02100
C1233       C  0.35639859  0.92054708  0.81804448     0.26900
C1234       C  0.32876076  0.93186679  0.81571606    -0.25600
N1235       N  0.28398822  0.86572378  0.82271052    -0.83000
H1236       H  0.33960503  0.85040010  0.82878519     0.12700
C1237       C  0.38908467  0.88039938  0.83080156     0.02100
N1238       N  0.38065873  0.93912621  0.81600779    -0.81600
H1239       H  0.32631698  0.95477825  0.81246359     0.17600
C1240       C  0.40629708  0.86598960  0.81072655    -0.26400
C1241       C  0.43498904  0.85907584  0.81723232     0.35600
C1242       C  0.44631607  0.86617520  0.84441665    -0.20400
C1243       C  0.42866310  0.88017555  0.86421722    -0.25700
C1244       C  0.40052462  0.88766611  0.85760527     0.27000
H1245       H  0.39766910  0.86084633  0.78979365     0.12700
N1246       N  0.45209080  0.84485880  0.79608299    -0.83000
H1247       H  0.43651097  0.88505117  0.88525435     0.17600
N1248       N  0.38367135  0.90324581  0.87803676    -0.81600
H1249       H  0.46979507  0.85772776  0.79152543     0.33200
H1250       H  0.45958756  0.82553854  0.80480511     0.37700
H1251       H  0.38312444  0.89137917  0.89711809     0.33200
H1252       H  0.39412382  0.92251652  0.88230555     0.29900
H1253       H  0.37986790  0.94947742  0.79607460     0.33200
H1254       H  0.37878700  0.95471915  0.83194946     0.29900
H1255       H  0.27421681  0.86654866  0.80251769     0.37700
H1256       H  0.29057459  0.84446677  0.82591258     0.33200
C1257       C  0.45431097  0.82235022  0.88659076    -0.20500
C1258       C  0.44034671  0.83260227  0.91134727     0.35700
C1259       C  0.41131960  0.82639979  0.91569945    -0.26500
C1260       C  0.39588621  0.81047465  0.89556056     0.02100
C1261       C  0.41032566  0.79839677  0.87193354     0.26900
C1262       C  0.43948891  0.80401280  0.86796153    -0.25600
N1263       N  0.45489393  0.85107391  0.93092992    -0.83000
H1264       H  0.40038594  0.83529204  0.93416168     0.12700
C1265       C  0.36463417  0.80751538  0.89956535     0.02100
N1266       N  0.39552686  0.78185735  0.85084622    -0.81600
H1267       H  0.44997956  0.79623542  0.84876508     0.17600
C1268       C  0.34643954  0.83101869  0.89384181    -0.26400
C1269       C  0.31756464  0.83078791  0.90255091     0.35600
C1270       C  0.30665355  0.80644032  0.91650683    -0.20400
C1271       C  0.32456739  0.78235469  0.92057852    -0.25700
C1272       C  0.35345071  0.78284760  0.91253103     0.27000
H1273       H  0.35505951  0.85012363  0.88398001     0.12700
N1274       N  0.30016464  0.85598581  0.89932196    -0.83000
H1275       H  0.31647445  0.76347981  0.93144435     0.17600
N1276       N  0.37176551  0.75887664  0.91896248    -0.81600
H1277       H  0.31031518  0.87277551  0.90998748     0.33200
H1278       H  0.29938911  0.86123395  0.87756842     0.37700
H1279       H  0.37128063  0.75533862  0.94112645     0.33200
H1280       H  0.36328059  0.74081610  0.90893764     0.29900
H1281       H  0.38652263  0.76405302  0.86099751     0.33200
H1282       H  0.37892307  0.79444122  0.84229695     0.29900
H1283       H  0.44342542  0.87035144  0.93234652     0.37700
H1284       H  0.45438386  0.84135970  0.95115493     0.33200
C1285       C  0.70791567  0.91870550  0.18005882    -0.20500
C1286       C  0.70377700  0.89234825  0.16588070     0.35700
C1287       C  0.67563483  0.88299455  0.16051390    -0.26500
C1288       C  0.65187730  0.89929801  0.16931442     0.02100
C1289       C  0.65594382  0.92474155  0.18469421     0.26900
C1290       C  0.68385079  0.93404237  0.19009871    -0.25600
N1291       N  0.72788168  0.87554054  0.15645085    -0.83000
H1292       H  0.67214032  0.86338779  0.14872748     0.12700
C1293       C  0.62311067  0.89233865  0.15843039     0.02100
N1294       N  0.63166056  0.94150954  0.19391438    -0.81600
H1295       H  0.68664650  0.95403673  0.20143348     0.17600
C1296       C  0.60343719  0.87781393  0.17582995    -0.26400
C1297       C  0.57526242  0.87305459  0.16638760     0.35600
C1298       C  0.56661368  0.88362914  0.13910103    -0.20400
C1299       C  0.58659988  0.89812346  0.12195819    -0.25700
C1300       C  0.61468377  0.90256238  0.13128492     0.27000
H1301       H  0.61003492  0.87014360  0.19683212     0.12700
N1302       N  0.55651473  0.85680613  0.18462031    -0.83000
H1303       H  0.58014740  0.90641743  0.10124549     0.17600
N1304       N  0.63470117  0.91773049  0.11344384    -0.81600
H1305       H  0.55257268  0.86900435  0.20298406     0.33200
H1306       H  0.53675285  0.85307986  0.17491636     0.37700
H1307       H  0.62530785  0.92321131  0.09374684     0.33200
H1308       H  0.63963103  0.93698021  0.12361500     0.29900
H1309       H  0.63837440  0.95954442  0.20531138     0.33200
H1310       H  0.62111437  0.94922561  0.17562607     0.29900
H1311       H  0.73879689  0.86837512  0.17477179     0.37700
H1312       H  0.72095597  0.85714207  0.14585650     0.33200
C1313       C  0.55815032  0.84445768  0.09315262    -0.20500
C1314       C  0.57520898  0.85500140  0.07045195     0.35700
C1315       C  0.60385941  0.84643993  0.06868891    -0.26500
C1316       C  0.61583465  0.82772335  0.08917417     0.02100
C1317       C  0.59826997  0.81556285  0.11041303     0.26900
C1318       C  0.56934869  0.82341202  0.11170638    -0.25600
N1319       N  0.56474024  0.87574817  0.05014552    -0.83000
H1320       H  0.61723120  0.85541630  0.05194794     0.12700
C1321       C  0.64703664  0.82242908  0.08868772     0.02100
N1322       N  0.61018902  0.79707215  0.13203229    -0.81600
H1323       H  0.55640965  0.81554289  0.12933579     0.17600
C1324       C  0.66564498  0.84592577  0.09027132    -0.26400
C1325       C  0.69527733  0.84245287  0.08615020     0.35600
C1326       C  0.70622479  0.81488446  0.08057778    -0.20400
C1327       C  0.68782729  0.79119273  0.08091877    -0.25700
C1328       C  0.65825079  0.79467486  0.08466637     0.27000
H1329       H  0.65681809  0.86717983  0.09351139     0.12700
N1330       N  0.71388090  0.86687869  0.08592183    -0.83000
H1331       H  0.69641425  0.77003933  0.07640320     0.17600
N1332       N  0.63949763  0.77040106  0.08293753    -0.81600
H1333       H  0.70233921  0.88556032  0.09078468     0.33200
H1334       H  0.72158018  0.86946176  0.06504894     0.37700
H1335       H  0.62661178  0.77309959  0.06470545     0.33200
H1336       H  0.65125691  0.75150909  0.07998898     0.29900
H1337       H  0.60666294  0.80656167  0.15201000     0.33200
H1338       H  0.59899898  0.77774103  0.13159081     0.29900
H1339       H  0.55551017  0.89305178  0.06096957     0.37700
H1340       H  0.54907970  0.86610351  0.03760136     0.33200
C1341       C  0.31256887  0.93214816  0.17089922    -0.20500
C1342       C  0.33370798  0.95368098  0.17185790     0.35700
C1343       C  0.36262054  0.94638441  0.16958785    -0.26500
C1344       C  0.37150220  0.91808093  0.16480488     0.02100
C1345       C  0.35042556  0.89614321  0.16449261     0.26900
C1346       C  0.32112040  0.90357850  0.16715041    -0.25600
N1347       N  0.32599940  0.98327994  0.17512306    -0.83000
H1348       H  0.37829997  0.96329302  0.17151413     0.12700
C1349       C  0.40266154  0.91257102  0.15915671     0.02100
N1350       N  0.35862928  0.86644920  0.16214706    -0.81600
H1351       H  0.30502428  0.88695162  0.16732778     0.17600
C1352       C  0.41659028  0.88888171  0.17181800    -0.26400
C1353       C  0.44441914  0.88095256  0.16369363     0.35600
C1354       C  0.46001360  0.89898356  0.14489273    -0.20400
C1355       C  0.44791513  0.92507888  0.13619437    -0.25700
C1356       C  0.41877904  0.93093816  0.14098737     0.27000
H1357       H  0.40540620  0.87555138  0.18715637     0.12700
N1358       N  0.45590240  0.85435929  0.17464277    -0.83000
H1359       H  0.46031728  0.93933556  0.12273283     0.17600
N1360       N  0.40517815  0.95431244  0.12584049    -0.81600
H1361       H  0.44302144  0.83781778  0.16706445     0.33200
H1362       H  0.47661671  0.85040570  0.16705659     0.37700
H1363       H  0.42003731  0.96544128  0.11324924     0.33200
H1364       H  0.39031573  0.94551541  0.11167480     0.29900
H1365       H  0.34051146  0.85329555  0.16184793     0.33200
H1366       H  0.36919582  0.86336100  0.14275369     0.29900
H1367       H  0.33612303  0.99080548  0.19360465     0.37700
H1368       H  0.33401557  0.99470374  0.15755652     0.33200
C1369       C  0.30814897  0.82505116  0.06432434    -0.20500
C1370       C  0.33106546  0.80539667  0.06169757     0.35700
C1371       C  0.35891711  0.81437736  0.06755328    -0.26500
C1372       C  0.36445024  0.84221154  0.07724428     0.02100
C1373       C  0.34130478  0.86202533  0.07980619     0.26900
C1374       C  0.31329989  0.85295050  0.07371597    -0.25600
N1375       N  0.32596739  0.77633408  0.05294845    -0.83000
H1376       H  0.37652034  0.79952081  0.06416545     0.12700
C1377       C  0.39464790  0.84975143  0.08406418     0.02100
N1378       N  0.34621000  0.89152774  0.08704515    -0.81600
H1379       H  0.29561252  0.86809188  0.07490061     0.17600
C1380       C  0.40579757  0.87583154  0.07429957    -0.26400
C1381       C  0.43369578  0.88409057  0.08095519     0.35600
C1382       C  0.45224336  0.86423563  0.09508090    -0.20400
C1383       C  0.44155585  0.83765032  0.10375057    -0.25700
C1384       C  0.41268754  0.83073248  0.09972001     0.27000
H1385       H  0.39264893  0.89035300  0.06165691     0.12700
N1386       N  0.44140050  0.91325163  0.07475236    -0.83000
H1387       H  0.45550025  0.82291561  0.11533657     0.17600
N1388       N  0.40152593  0.80483561  0.11215694    -0.81600
H1389       H  0.43750682  0.91767825  0.05304415     0.33200
H1390       H  0.46288397  0.91704834  0.07896039     0.37700
H1391       H  0.41758725  0.79340682  0.12294259     0.33200
H1392       H  0.38635575  0.81077909  0.12761897     0.29900
H1393       H  0.32682846  0.90295839  0.08826434     0.33200
H1394       H  0.35551968  0.89237734  0.10721790     0.29900
H1395       H  0.31352840  0.76658873  0.06891663     0.37700
H1396       H  0.34512065  0.76471330  0.05192009     0.33200
C1397       C  0.50202677  0.84265546  0.06278043    -0.20500
C1398       C  0.49232620  0.85758978  0.03802009     0.35700
C1399       C  0.48867110  0.84296147  0.01235631    -0.26500
C1400       C  0.50194623  0.81630057  0.00783555     0.02100
C1401       C  0.51348963  0.80161013  0.03193626     0.26900
C1402       C  0.51131564  0.81400568  0.05941813    -0.25600
N1403       N  0.49169429  0.88825847  0.03611873    -0.83000
H1404       H  0.48103236  0.85518154  0.99396972     0.12700
C1405       C  0.51134391  0.81135689  0.97758651     0.02100
N1406       N  0.52917510  0.77532839  0.02905321    -0.81600
H1407       H  0.51945245  0.80220297  0.07780861     0.17600
C1408       C  0.52776807  0.83361369  0.96611399    -0.26400
C1409       C  0.52512737  0.84144745  0.93736270     0.35600
C1410       C  0.51209930  0.82272965  0.91754903    -0.20400
C1411       C  0.49959527  0.79742219  0.92836246    -0.25700
C1412       C  0.49747714  0.79256916  0.95826875     0.27000
H1413       H  0.53785865  0.84867404  0.98058239     0.12700
N1414       N  0.53122590  0.87051859  0.92965644    -0.83000
H1415       H  0.48904988  0.78286676  0.91379466     0.17600
N1416       N  0.47972281  0.76972334  0.96822111    -0.81600
H1417       H  0.55143655  0.87557220  0.93785070     0.33200
H1418       H  0.51651810  0.88364117  0.94038100     0.37700
H1419       H  0.49250337  0.75512684  0.97955841     0.33200
H1420       H  0.46424497  0.77815226  0.98206472     0.29900
H1421       H  0.51541749  0.75978386  0.02102189     0.33200
H1422       H  0.54583254  0.77849624  0.01442683     0.29900
H1423       H  0.49830871  0.89807048  0.05494827     0.37700
H1424       H  0.47099480  0.89471981  0.03045939     0.33200
C1425       C  0.55763955  0.09504758  0.84035239    -0.20500
C1426       C  0.57360932  0.06908851  0.83876122     0.35700
C1427       C  0.60138662  0.06929469  0.82761793    -0.26500
C1428       C  0.61359165  0.09448637  0.81721545     0.02100
C1429       C  0.59641557  0.11929135  0.81452389     0.26900
C1430       C  0.56875731  0.11943792  0.82633942    -0.25600
N1431       N  0.56290059  0.04258756  0.84953520    -0.83000
H1432       H  0.61414262  0.04977231  0.82850674     0.12700
C1433       C  0.64472425  0.09384992  0.81140988     0.02100
N1434       N  0.60640984  0.14432830  0.79984221    -0.81600
H1435       H  0.55644310  0.13923048  0.82605734     0.17600
C1436       C  0.65440962  0.07811203  0.78791907    -0.26400
C1437       C  0.68292269  0.06853568  0.78645187     0.35600
C1438       C  0.70221536  0.07500178  0.80906498    -0.20400
C1439       C  0.69312473  0.09281980  0.83131411    -0.25700
C1440       C  0.66438030  0.10196805  0.83290680     0.27000
H1441       H  0.63914164  0.07156845  0.77170540     0.12700
N1442       N  0.69198776  0.05123215  0.76263222    -0.83000
H1443       H  0.70783822  0.09776142  0.84858904     0.17600
N1444       N  0.65448853  0.11726462  0.85756800    -0.81600
H1445       H  0.67506135  0.04791441  0.74834733     0.33200
H1446       H  0.70756972  0.06274659  0.75140511     0.37700
H1447       H  0.67128590  0.12003431  0.87220794     0.33200
H1448       H  0.64822500  0.13765447  0.85075677     0.29900
H1449       H  0.62499502  0.15152224  0.80981237     0.33200
H1450       H  0.61167941  0.13844633  0.77883673     0.29900
H1451       H  0.57726305  0.03409789  0.86459201     0.37700
H1452       H  0.56203258  0.02816326  0.83243966     0.33200
C1453       C  0.56476476  0.12872651  0.89237904    -0.20500
C1454       C  0.58708543  0.10960667  0.90084217     0.35700
C1455       C  0.61374504  0.12038431  0.90779771    -0.26500
C1456       C  0.61933310  0.14970283  0.90718296     0.02100
C1457       C  0.59756533  0.16906385  0.89867970     0.26900
C1458       C  0.57036954  0.15832763  0.89134457    -0.25600
N1459       N  0.58361049  0.07928172  0.90431253    -0.83000
H1460       H  0.63059516  0.10533666  0.91370365     0.12700
C1461       C  0.64846785  0.15869584  0.91557940     0.02100
N1462       N  0.60307018  0.19931642  0.89774112    -0.81600
H1463       H  0.55347672  0.17301093  0.88472536     0.17600
C1464       C  0.66535254  0.17483426  0.89655414    -0.26400
C1465       C  0.69453679  0.17955976  0.90240415     0.35600
C1466       C  0.70665300  0.16771287  0.92748927    -0.20400
C1467       C  0.68968049  0.15228552  0.94668848    -0.25700
C1468       C  0.66079324  0.14776613  0.94104837     0.27000
H1469       H  0.65598855  0.18306669  0.87686178     0.12700
N1470       N  0.71170883  0.19664231  0.88340517    -0.83000
H1471       H  0.69881023  0.14420076  0.96659991     0.17600
N1472       N  0.64388550  0.13216795  0.96138108    -0.81600
H1473       H  0.69950006  0.20365556  0.86585153     0.33200
H1474       H  0.71780132  0.21502342  0.89454373     0.37700
H1475       H  0.65311968  0.11184460  0.96408543     0.33200
H1476       H  0.64511320  0.14278344  0.98098950     0.29900
H1477       H  0.58475509  0.21057618  0.89098383     0.33200
H1478       H  0.60740695  0.20594079  0.91866322     0.29900
H1479       H  0.56303633  0.07274107  0.89825726     0.37700
H1480       H  0.59842780  0.06900815  0.89137535     0.33200
C1481       C  0.45166334  0.09233747  0.85675788    -0.20500
C1482       C  0.43608478  0.07066085  0.87073526     0.35700
C1483       C  0.40755021  0.06585928  0.86309818    -0.26500
C1484       C  0.39388472  0.08279930  0.84221277     0.02100
C1485       C  0.40937977  0.10429042  0.82780818     0.26900
C1486       C  0.43836927  0.10857854  0.83495695    -0.25600
N1487       N  0.44895649  0.05362486  0.89292106    -0.83000
H1488       H  0.39573981  0.04908117  0.87396028     0.12700
C1489       C  0.36378793  0.07625353  0.83488551     0.02100
N1490       N  0.39559778  0.12168677  0.80623360    -0.81600
H1491       H  0.45037247  0.12534085  0.82432024     0.17600
C1492       C  0.34155008  0.09554003  0.84174607    -0.26400
C1493       C  0.31253034  0.08819792  0.83731562     0.35600
C1494       C  0.30596111  0.06106077  0.82576913    -0.20400
C1495       C  0.32858766  0.04221615  0.81869733    -0.25700
C1496       C  0.35722363  0.04951879  0.82298340     0.27000
H1497       H  0.34686800  0.11608067  0.85103581     0.12700
N1498       N  0.29002116  0.10801851  0.84460125    -0.83000
H1499       H  0.32407049  0.02131448  0.80983470     0.17600
N1500       N  0.37979855  0.02970191  0.81560292    -0.81600
H1501       H  0.29859668  0.12662551  0.85357326     0.33200
H1502       H  0.27994260  0.11428272  0.82552691     0.37700
H1503       H  0.37137518  0.01071523  0.80740557     0.33200
H1504       H  0.39179790  0.03901139  0.79911550     0.29900
H1505       H  0.40988976  0.13675846  0.79798965     0.33200
H1506       H  0.39002748  0.10825809  0.78922959     0.29900
H1507       H  0.44847530  0.03223390  0.88634190     0.37700
H1508       H  0.43600799  0.05515833  0.91109482     0.33200
C1509       C  0.45713141  0.13284429  0.90180586    -0.20500
C1510       C  0.44434265  0.12141836  0.92665682     0.35700
C1511       C  0.41571717  0.12838993  0.93292524    -0.26500
C1512       C  0.39972214  0.14625504  0.91443033     0.02100
C1513       C  0.41333476  0.15923171  0.89079427     0.26900
C1514       C  0.44206784  0.15294382  0.88511312    -0.25600
N1515       N  0.46023347  0.10266030  0.94530824    -0.83000
H1516       H  0.40570577  0.11918083  0.95176804     0.12700
C1517       C  0.36875429  0.15107025  0.91957609     0.02100
N1518       N  0.39759224  0.17753356  0.87155637    -0.81600
H1519       H  0.45200647  0.16200600  0.86615023     0.17600
C1520       C  0.35856386  0.17928692  0.92171098    -0.26400
C1521       C  0.32942596  0.18501332  0.92596666     0.35600
C1522       C  0.31019215  0.16202419  0.92892265    -0.20400
C1523       C  0.32002321  0.13378834  0.92601230    -0.25700
C1524       C  0.34929151  0.12802561  0.92137947     0.27000
H1525       H  0.37350033  0.19692724  0.92034563     0.12700
N1526       N  0.31922659  0.21411999  0.92779459    -0.83000
H1527       H  0.30513468  0.11626218  0.92874112     0.17600
N1528       N  0.35939210  0.09896090  0.91903561    -0.81600
H1529       H  0.33614667  0.22852381  0.92527744     0.33200
H1530       H  0.30529845  0.21765861  0.91052844     0.37700
H1531       H  0.34234149  0.08463363  0.92066907     0.33200
H1532       H  0.36793177  0.09648250  0.89850134     0.29900
H1533       H  0.40781644  0.19739356  0.87084808     0.33200
H1534       H  0.39851386  0.16860355  0.85104907     0.29900
H1535       H  0.44876108  0.08370912  0.94792103     0.37700
H1536       H  0.46134127  0.11239919  0.96542314     0.33200
C1537       C  0.49406151  0.90584359  0.83880501    -0.20500
C1538       C  0.48497897  0.92298582  0.86189112     0.35700
C1539       C  0.48096332  0.95223075  0.85791859    -0.26500
C1540       C  0.49164964  0.96624947  0.83351862     0.02100
C1541       C  0.50217672  0.94940621  0.81061704     0.26900
C1542       C  0.50182979  0.91917442  0.81286478    -0.25600
N1543       N  0.48382560  0.91151506  0.89048424    -0.83000
H1544       H  0.47273996  0.96454200  0.87581302     0.12700
C1545       C  0.49665111  0.99771928  0.83623819     0.02100
N1546       N  0.51519569  0.96265457  0.78619987    -0.81600
H1547       H  0.51010093  0.90628368  0.79543133     0.17600
C1548       C  0.50696291  0.00722652  0.86281414    -0.26400
C1549       C  0.50781735  0.03603349  0.86970671     0.35600
C1550       C  0.50299550  0.05682457  0.84787201    -0.20400
C1551       C  0.49348054  0.04776778  0.82078389    -0.25700
C1552       C  0.48917401  0.01837229  0.81518371     0.27000
H1553       H  0.51314191  0.99195557  0.87935365     0.12700
N1554       N  0.51313715  0.04299185  0.89928025    -0.83000
H1555       H  0.48813075  0.06358269  0.80449399     0.17600
N1556       N  0.47593666  0.00987952  0.78888731    -0.81600
H1557       H  0.53349680  0.03534898  0.90488030     0.33200
H1558       H  0.51240634  0.06491995  0.90315619     0.37700
H1559       H  0.48843913  0.01753907  0.77194407     0.33200
H1560       H  0.45584726  0.01990922  0.78760091     0.29900
H1561       H  0.53639550  0.95533546  0.78492219     0.33200
H1562       H  0.50435814  0.95576281  0.76786141     0.29900
H1563       H  0.50073271  0.92048019  0.90204583     0.37700
H1564       H  0.46499240  0.91881014  0.90022721     0.33200
C1565       C  0.56125844  0.10451430  0.15569427    -0.20500
C1566       C  0.57474764  0.08096391  0.14223739     0.35700
C1567       C  0.60441028  0.07699035  0.14554292    -0.26500
C1568       C  0.62084310  0.09616756  0.16159083     0.02100
C1569       C  0.60726007  0.11947996  0.17547901     0.26900
C1570       C  0.57752637  0.12278756  0.17300781    -0.25600
N1571       N  0.55848940  0.06129824  0.12515701    -0.83000
H1572       H  0.61486368  0.05878288  0.13555533     0.12700
C1573       C  0.65144846  0.08921281  0.16595385     0.02100
N1574       N  0.62289283  0.14056063  0.19148271    -0.81600
H1575       H  0.56726574  0.14115162  0.18291022     0.17600
C1576       C  0.67069798  0.09014367  0.14281893    -0.26400
C1577       C  0.69929394  0.08067404  0.14617191     0.35600
C1578       C  0.70821328  0.06960864  0.17301954    -0.20400
C1579       C  0.68891439  0.06925242  0.19607223    -0.25700
C1580       C  0.66072014  0.07887381  0.19272706     0.27000
H1581       H  0.66315507  0.09754698  0.12204583     0.12700
N1582       N  0.71855838  0.08055139  0.12213884    -0.83000
H1583       H  0.69554571  0.06070082  0.21673507     0.17600
N1584       N  0.64107073  0.07694818  0.21624188    -0.81600
H1585       H  0.70815866  0.08826407  0.10372917     0.33200
H1586       H  0.73494900  0.09503937  0.12656762     0.37700
H1587       H  0.64000064  0.05549859  0.22270609     0.33200
H1588       H  0.64936497  0.08880285  0.23329288     0.29900
H1589       H  0.61953172  0.16040464  0.18143298     0.33200
H1590       H  0.64495179  0.13681292  0.19069658     0.29900
H1591       H  0.54900895  0.07247031  0.10814350     0.37700
H1592       H  0.57196446  0.04587336  0.11601746     0.33200
C1593       C  0.55883014  0.14727070  0.11251888    -0.20500
C1594       C  0.57398630  0.17059003  0.12431437     0.35700
C1595       C  0.60286039  0.17433055  0.11700840    -0.26500
C1596       C  0.61686306  0.15503253  0.09870883     0.02100
C1597       C  0.60152268  0.13185920  0.08684158     0.26900
C1598       C  0.57237428  0.12932907  0.09267965    -0.25600
N1599       N  0.56116531  0.19006608  0.14446396    -0.83000
H1600       H  0.61450327  0.19229783  0.12579612     0.12700
C1601       C  0.64645862  0.16101836  0.08964566     0.02100
N1602       N  0.61488349  0.11006804  0.06952378    -0.81600
H1603       H  0.56070389  0.11175519  0.08330738     0.17600
C1604       C  0.66938901  0.15818343  0.10900299    -0.26400
C1605       C  0.69791459  0.16126809  0.09956290     0.35600
C1606       C  0.70315442  0.16710768  0.07024045    -0.20400
C1607       C  0.67988532  0.17035944  0.05128101    -0.25700
C1608       C  0.65176193  0.16785274  0.06085121     0.27000
H1609       H  0.66499322  0.15327169  0.13131017     0.12700
N1610       N  0.72128309  0.15887977  0.11958156    -0.83000
H1611       H  0.68342589  0.17507594  0.02876916     0.17600
N1612       N  0.62837964  0.17198582  0.04124954    -0.81600
H1613       H  0.71365700  0.15400127  0.14010572     0.33200
H1614       H  0.73084492  0.17903265  0.12095821     0.37700
H1615       H  0.63028963  0.19228519  0.03186623     0.33200
H1616       H  0.63015863  0.15664156  0.02513974     0.29900
H1617       H  0.61198713  0.09043055  0.07998856     0.33200
H1618       H  0.63704587  0.11268458  0.06826979     0.29900
H1619       H  0.53962525  0.18528745  0.14804163     0.37700
H1620       H  0.56145992  0.21051543  0.13521557     0.33200
C1621       C  0.30886333  0.06778539  0.18497930    -0.20500
C1622       C  0.31611800  0.09132431  0.16758361     0.35700
C1623       C  0.34506799  0.09868164  0.16453918    -0.26500
C1624       C  0.36662627  0.08225609  0.17789879     0.02100
C1625       C  0.35944195  0.05985309  0.19659616     0.26900
C1626       C  0.33057100  0.05337092  0.20057550    -0.25600
N1627       N  0.29440847  0.10737058  0.15268948    -0.83000
H1628       H  0.35088397  0.11673943  0.15113445     0.12700
C1629       C  0.39671616  0.08779316  0.17107526     0.02100
N1630       N  0.38150242  0.04340775  0.21086929    -0.81600
H1631       H  0.32519920  0.03607576  0.21512648     0.17600
C1632       C  0.41348758  0.10219211  0.19126976    -0.26400
C1633       C  0.44177897  0.10969038  0.18512619     0.35600
C1634       C  0.45320259  0.10280229  0.15793944    -0.20400
C1635       C  0.43671607  0.08712707  0.13837802    -0.25700
C1636       C  0.40879269  0.07905331  0.14474884     0.27000
H1637       H  0.40421897  0.10835594  0.21165952     0.12700
N1638       N  0.45744857  0.12567020  0.20620323    -0.83000
H1639       H  0.44516943  0.08217144  0.11734329     0.17600
N1640       N  0.39338194  0.06255533  0.12383495    -0.81600
H1641       H  0.46000223  0.11249950  0.22427498     0.33200
H1642       H  0.47800760  0.13072068  0.19917549     0.37700
H1643       H  0.40452628  0.04323989  0.12105845     0.33200
H1644       H  0.37298816  0.05700267  0.13101571     0.29900
H1645       H  0.37249874  0.02780963  0.22419679     0.33200
H1646       H  0.39307021  0.03239697  0.19512465     0.29900
H1647       H  0.29839953  0.10595924  0.13071696     0.37700
H1648       H  0.29616674  0.12887668  0.15863677     0.33200
C1649       C  0.45090081  0.14845424  0.11713182    -0.20500
C1650       C  0.43367301  0.16475270  0.13600540     0.35700
C1651       C  0.40430373  0.16881365  0.12978452    -0.26500
C1652       C  0.39229302  0.15783140  0.10447048     0.02100
C1653       C  0.41022106  0.14417610  0.08453395     0.26900
C1654       C  0.43868031  0.13836793  0.09162954    -0.25600
N1655       N  0.44582360  0.17581097  0.16201356    -0.83000
H1656       H  0.39068611  0.18009990  0.14484426     0.12700
C1657       C  0.36126250  0.16131424  0.09835341     0.02100
N1658       N  0.39961309  0.13617299  0.05686143    -0.81600
H1659       H  0.45025021  0.12426971  0.07766537     0.17600
C1660       C  0.34961238  0.18904110  0.09663769    -0.26400
C1661       C  0.32160460  0.19356319  0.08639312     0.35600
C1662       C  0.30465428  0.16980160  0.07899920    -0.20400
C1663       C  0.31563959  0.14204234  0.08218312    -0.25700
C1664       C  0.34394912  0.13757334  0.09133885     0.27000
H1665       H  0.36295937  0.20725778  0.10169236     0.12700
N1666       N  0.31061452  0.22218147  0.08239375    -0.83000
H1667       H  0.30280403  0.12384453  0.07586649     0.17600
N1668       N  0.35540949  0.10899726  0.09218330    -0.81600
H1669       H  0.32591586  0.23729424  0.08844426     0.33200
H1670       H  0.29318404  0.22477840  0.09621092     0.37700
H1671       H  0.34219979  0.09645431  0.10514225     0.33200
H1672       H  0.35412752  0.10057287  0.07149333     0.29900
H1673       H  0.41181398  0.14678518  0.04135104     0.33200
H1674       H  0.40301170  0.11415478  0.05430837     0.29900
H1675       H  0.46143005  0.19071183  0.15624118     0.37700
H1676       H  0.43027273  0.18691030  0.17379406     0.33200
C1677       C  0.51944938  0.92265972  0.15360547    -0.20500
C1678       C  0.50733363  0.93097264  0.18025230     0.35700
C1679       C  0.50688880  0.96026304  0.18757893    -0.26500
C1680       C  0.52102625  0.98049585  0.17038582     0.02100
C1681       C  0.53787202  0.97106183  0.14728237     0.26900
C1682       C  0.53529864  0.94287831  0.13804043    -0.25600
N1683       N  0.49484540  0.91066346  0.19971851    -0.83000
H1684       H  0.49461686  0.96732074  0.20598036     0.12700
C1685       C  0.51287840  0.01118643  0.17103720     0.02100
N1686       N  0.55513203  0.99107732  0.13150529    -0.81600
H1687       H  0.54428061  0.93723444  0.11746002     0.17600
C1688       C  0.52304755  0.02979196  0.19229858    -0.26400
C1689       C  0.51994852  0.05978756  0.18916037     0.35600
C1690       C  0.50710927  0.07106120  0.16381933    -0.20400
C1691       C  0.49635744  0.05201797  0.14334054    -0.25700
C1692       C  0.49821392  0.02252551  0.14714328     0.27000
H1693       H  0.53428358  0.02108629  0.21078476     0.12700
N1694       N  0.53027166  0.07788954  0.21170284    -0.83000
H1695       H  0.48790138  0.06007941  0.12321621     0.17600
N1696       N  0.48654421  0.00391776  0.12574886    -0.81600
H1697       H  0.55253911  0.07548860  0.21267853     0.33200
H1698       H  0.52589885  0.09946806  0.20730289     0.37700
H1699       H  0.46461967  0.00836701  0.12385819     0.33200
H1700       H  0.49624542  0.00871582  0.10610306     0.29900
H1701       H  0.57099423  0.99838993  0.14545987     0.33200
H1702       H  0.56582506  0.98080616  0.11466677     0.29900
H1703       H  0.49904888  0.88980558  0.19279633     0.37700
H1704       H  0.50562352  0.91245791  0.21928415     0.33200
C1705       C  0.50471985  0.14987010  0.08125797    -0.20500
C1706       C  0.51054170  0.17621968  0.06778053     0.35700
C1707       C  0.51185115  0.17770171  0.03750515    -0.26500
C1708       C  0.50653346  0.15324532  0.02073333     0.02100
C1709       C  0.49985682  0.12719285  0.03474676     0.26900
C1710       C  0.50091014  0.12544395  0.06450032    -0.25600
N1711       N  0.51622765  0.20102304  0.08471322    -0.83000
H1712       H  0.51810402  0.19758091  0.02731686     0.12700
C1713       C  0.51206737  0.15280551  0.98923158     0.02100
N1714       N  0.49239533  0.10216185  0.01870644    -0.81600
H1715       H  0.49747558  0.10483232  0.07480212     0.17600
C1716       C  0.52991617  0.13080850  0.97940775    -0.26400
C1717       C  0.52898763  0.12193885  0.95100312     0.35600
C1718       C  0.51453763  0.13862652  0.93012102    -0.20400
C1719       C  0.49979252  0.16349273  0.93930096    -0.25700
C1720       C  0.49708677  0.16979595  0.96877271     0.27000
H1721       H  0.54181135  0.11775076  0.99470774     0.12700
N1722       N  0.53973408  0.09399868  0.94448218    -0.83000
H1723       H  0.48831616  0.17662850  0.92380975     0.17600
N1724       N  0.47760390  0.19203885  0.97722684    -0.81600
H1725       H  0.56069388  0.09257120  0.95236707     0.33200
H1726       H  0.52756274  0.07910080  0.95595167     0.37700
H1727       H  0.48902632  0.20765196  0.98828909     0.33200
H1728       H  0.46235457  0.18321359  0.99105961     0.29900
H1729       H  0.50699214  0.08581185  0.02392004     0.33200
H1730       H  0.47202399  0.09559950  0.02522633     0.29900
H1731       H  0.50151092  0.21700842  0.07880885     0.37700
H1732       H  0.53675991  0.20824394  0.07956051     0.33200
C1733       C  0.89065402  0.82396065  0.55704839    -0.20500
C1734       C  0.91592023  0.81418567  0.57159082     0.35700
C1735       C  0.91467439  0.80601696  0.60042736    -0.26500
C1736       C  0.88920117  0.80707382  0.61576371     0.02100
C1737       C  0.86341720  0.81238961  0.60106510     0.26900
C1738       C  0.86432405  0.81950001  0.57157311    -0.25600
N1739       N  0.94331210  0.81247878  0.55842304    -0.83000
H1740       H  0.93446895  0.80064880  0.61155639     0.12700
C1741       C  0.89161848  0.80636711  0.64742062     0.02100
N1742       N  0.83671550  0.81181872  0.61633557    -0.81600
H1743       H  0.84441452  0.82463605  0.56062675     0.17600
C1744       C  0.89188124  0.83264531  0.66190722    -0.26400
C1745       C  0.90382156  0.83507490  0.68937986     0.35600
C1746       C  0.91517017  0.81046615  0.70302558    -0.20400
C1747       C  0.91313226  0.78379280  0.68930636    -0.25700
C1748       C  0.90171723  0.78154114  0.66152216     0.27000
H1749       H  0.88548432  0.85181959  0.65057169     0.12700
N1750       N  0.90662481  0.86300825  0.70162346    -0.83000
H1751       H  0.92194911  0.76484922  0.69971379     0.17600
N1752       N  0.90227787  0.75461486  0.64669358    -0.81600
H1753       H  0.89652547  0.86300140  0.72160831     0.33200
H1754       H  0.92841835  0.86704464  0.70478728     0.37700
H1755       H  0.91105058  0.73852122  0.65977695     0.33200
H1756       H  0.88103367  0.74888240  0.64260846     0.31100
H1757       H  0.81967730  0.81660781  0.60247515     0.33200
H1758       H  0.83366172  0.79081082  0.62358977     0.29900
H1759       H  0.95767829  0.82481895  0.57032209     0.37700
H1760       H  0.95038166  0.79116907  0.55922568     0.33200
C1761       C  0.86447382  0.88103734  0.56021505    -0.20500
C1762       C  0.83565492  0.88698612  0.56810649     0.35700
C1763       C  0.82997199  0.89739954  0.59567644    -0.26500
C1764       C  0.85210016  0.90088423  0.61565038     0.02100
C1765       C  0.88063917  0.89522742  0.60790194     0.26900
C1766       C  0.88649818  0.88530574  0.58032859    -0.25600
N1767       N  0.81168647  0.88173756  0.54941350    -0.83000
H1768       H  0.80802147  0.90187692  0.60190791     0.12700
C1769       C  0.84528637  0.90968724  0.64505797     0.02100
N1770       N  0.90345941  0.89897881  0.62831854    -0.81600
H1771       H  0.90846469  0.88070967  0.57446148     0.17600
C1772       C  0.84016442  0.88863081  0.66598543    -0.26400
C1773       C  0.83588048  0.89609101  0.69469367     0.35600
C1774       C  0.83599010  0.92528666  0.70243191    -0.20400
C1775       C  0.84059154  0.94628543  0.68115798    -0.25700
C1776       C  0.84525922  0.93878140  0.65252274     0.27000
H1777       H  0.83919184  0.86629543  0.65989571     0.12700
N1778       N  0.83034303  0.87379007  0.71511798    -0.83000
H1779       H  0.84020705  0.96878136  0.68685965     0.17600
N1780       N  0.84912478  0.96052914  0.63088686    -0.81600
H1781       H  0.84604388  0.87451926  0.73110604     0.33200
H1782       H  0.81035420  0.87766438  0.72448375     0.37700
H1783       H  0.84772696  0.98096586  0.63989731     0.33200
H1784       H  0.86990258  0.95846042  0.62276409     0.29900
H1785       H  0.92315057  0.89285737  0.61946968     0.33200
H1786       H  0.90488491  0.92081285  0.63287480     0.29900
H1787       H  0.81801893  0.87164602  0.53054012     0.37700
H1788       H  0.79829380  0.86712128  0.55978607     0.33200
C1789       C  0.86512886  0.88777309  0.45207377    -0.20500
C1790       C  0.84347480  0.87537688  0.43521390     0.35700
C1791       C  0.83921861  0.88501995  0.40691159    -0.26500
C1792       C  0.85700122  0.90596440  0.39465594     0.02100
C1793       C  0.87811375  0.91904652  0.41206893     0.26900
C1794       C  0.88134832  0.91030472  0.44082483    -0.25600
N1795       N  0.82679733  0.85214077  0.44655711    -0.83000
H1796       H  0.82228033  0.87569662  0.39416415     0.12700
C1797       C  0.85299037  0.91412993  0.36381523     0.02100
N1798       N  0.89689468  0.94038613  0.40030227    -0.81600
H1799       H  0.89778667  0.91985526  0.45405487     0.17600
C1800       C  0.85095258  0.94324084  0.35631150    -0.26400
C1801       C  0.84670647  0.95195745  0.32774416     0.35600
C1802       C  0.84348513  0.93108991  0.30608457    -0.20400
C1803       C  0.84609137  0.90200743  0.31328499    -0.25700
C1804       C  0.85061418  0.89334038  0.34189370     0.27000
H1805       H  0.85215042  0.95934746  0.37291268     0.12700
N1806       N  0.84547045  0.98200834  0.32066996    -0.83000
H1807       H  0.84354751  0.88587901  0.29684379     0.17600
N1808       N  0.85260038  0.86337234  0.34853340    -0.81600
H1809       H  0.84803162  0.99454197  0.33902852     0.33200
H1810       H  0.86288773  0.98648666  0.30732977     0.37700
H1811       H  0.83336455  0.85379944  0.34239543     0.33200
H1812       H  0.86892785  0.85441972  0.33604832     0.29900
H1813       H  0.91106870  0.94778067  0.41593118     0.33200
H1814       H  0.90941074  0.93052681  0.38452281     0.29900
H1815       H  0.81485566  0.85995860  0.46381587     0.37700
H1816       H  0.81208046  0.84500935  0.43128726     0.33200
C1817       C  0.94436558  0.81759154  0.30445353    -0.20500
C1818       C  0.94428176  0.79475825  0.32447102     0.35700
C1819       C  0.93719171  0.80015244  0.35314681    -0.26500
C1820       C  0.93043970  0.82790702  0.36233975     0.02100
C1821       C  0.93072297  0.85081618  0.34220298     0.26900
C1822       C  0.93700377  0.84528524  0.31336077    -0.25600
N1823       N  0.95147510  0.76613523  0.31554135    -0.83000
H1824       H  0.93714181  0.78264403  0.36852752     0.12700
C1825       C  0.92222541  0.83207451  0.39277321     0.02100
N1826       N  0.92492415  0.87985078  0.35035176    -0.81600
H1827       H  0.93762103  0.86293512  0.29816289     0.17600
C1828       C  0.93827251  0.85053423  0.40997400    -0.26400
C1829       C  0.92961796  0.85714905  0.43787455     0.35600
C1830       C  0.90581858  0.84266505  0.44995383    -0.20400
C1831       C  0.89114793  0.82243528  0.43349389    -0.25700
C1832       C  0.89859891  0.81752945  0.40475084     0.27000
H1833       H  0.95720230  0.86072880  0.40135872     0.12700
N1834       N  0.94507067  0.87905998  0.45283343    -0.83000
H1835       H  0.87286818  0.81155714  0.44270911     0.17600
N1836       N  0.88201037  0.79822952  0.38754686    -0.81600
H1837       H  0.94443691  0.89762549  0.44017345     0.33200
H1838       H  0.93481918  0.88455913  0.47185189     0.37700
H1839       H  0.86540081  0.78930340  0.39960940     0.33200
H1840       H  0.87231719  0.81024180  0.37116574     0.29900
H1841       H  0.94158106  0.88697859  0.36340450     0.33200
H1842       H  0.90602784  0.88041876  0.36225643     0.29900
H1843       H  0.95058868  0.75186997  0.33288256     0.37700
H1844       H  0.93578984  0.75965050  0.30093151     0.33200
C1845       C  0.89595620  0.13584354  0.56134199    -0.20500
C1846       C  0.90848067  0.11805664  0.58291707     0.35700
C1847       C  0.90827371  0.12715672  0.61136903    -0.26500
C1848       C  0.89656649  0.15368058  0.61897164     0.02100
C1849       C  0.88441233  0.17160163  0.59780660     0.26900
C1850       C  0.88418577  0.16249764  0.56908424    -0.25600
N1851       N  0.92163714  0.09075975  0.57691595    -0.83000
H1852       H  0.91855131  0.11389100  0.62762326     0.12700
C1853       C  0.90342826  0.16457186  0.64772709     0.02100
N1854       N  0.87282556  0.19907815  0.60561457    -0.81600
H1855       H  0.87419051  0.17585083  0.55275344     0.17600
C1856       C  0.92925138  0.17911417  0.65022992    -0.26400
C1857       C  0.94083157  0.18542670  0.67704047     0.35600
C1858       C  0.92688200  0.17543446  0.70226008    -0.20400
C1859       C  0.89999710  0.16227541  0.69972084    -0.25700
C1860       C  0.88765418  0.15756574  0.67263815     0.27000
H1861       H  0.94088132  0.18492791  0.63094782     0.12700
N1862       N  0.96702296  0.20147345  0.67841956    -0.83000
H1863       H  0.88852600  0.15557385  0.71877991     0.17600
N1864       N  0.85930985  0.14589331  0.67121780    -0.81600
H1865       H  0.97511112  0.20554372  0.65793842     0.33200
H1866       H  0.96194618  0.22152281  0.68713142     0.37700
H1867       H  0.84544698  0.16024255  0.68149173     0.33200
H1868       H  0.85224122  0.14477232  0.65000929     0.29900
H1869       H  0.86470668  0.20971853  0.58753106     0.33200
H1870       H  0.85542981  0.19546437  0.61927148     0.29900
H1871       H  0.92158600  0.08630955  0.55505123     0.37700
H1872       H  0.94318175  0.09182033  0.58310278     0.33200
C1873       C  0.82585686  0.06989310  0.69996700    -0.20500
C1874       C  0.85239297  0.07829379  0.68842317     0.35700
C1875       C  0.85438353  0.08423355  0.65903846    -0.26500
C1876       C  0.83019310  0.08284140  0.64107644     0.02100
C1877       C  0.80362748  0.07512867  0.65266144     0.26900
C1878       C  0.80160628  0.06886266  0.68199377    -0.25600
N1879       N  0.87783695  0.07940212  0.70560884    -0.83000
H1880       H  0.87509049  0.08942870  0.64998982     0.12700
C1881       C  0.83424037  0.08552576  0.60977925     0.02100
N1882       N  0.77912083  0.07208712  0.63439976    -0.81600
H1883       H  0.78120786  0.06183597  0.69053229     0.17600
C1884       C  0.85016266  0.06392270  0.59655720    -0.26400
C1885       C  0.86059115  0.06718685  0.56877745     0.35600
C1886       C  0.85405180  0.09260124  0.55300583    -0.20400
C1887       C  0.83460358  0.11238986  0.56504228    -0.25700
C1888       C  0.82522795  0.10965478  0.59353077     0.27000
H1889       H  0.85655316  0.04512386  0.60886093     0.12700
N1890       N  0.87980652  0.04535453  0.55898488    -0.83000
H1891       H  0.82896501  0.13165555  0.55313988     0.17600
N1892       N  0.80791141  0.13228583  0.60540206    -0.81600
H1893       H  0.89016236  0.05177191  0.54031585     0.33200
H1894       H  0.86762955  0.02741123  0.55428080     0.37700
H1895       H  0.82011481  0.15103021  0.60509562     0.33200
H1896       H  0.80278714  0.12832778  0.62678980     0.29900
H1897       H  0.77197279  0.05095453  0.63611480     0.33200
H1898       H  0.76289882  0.08559203  0.64203932     0.29900
H1899       H  0.88140667  0.05919071  0.71475052     0.37700
H1900       H  0.87440835  0.09414328  0.72210400     0.33200
C1901       C  0.90944033  0.14285919  0.45345535    -0.20500
C1902       C  0.89177728  0.16146158  0.43691128     0.35700
C1903       C  0.89951331  0.16804810  0.40860758    -0.26500
C1904       C  0.92329659  0.15493418  0.39550227     0.02100
C1905       C  0.94150679  0.13717968  0.41261254     0.26900
C1906       C  0.93509880  0.13272580  0.44175331    -0.25600
N1907       N  0.86553017  0.17346266  0.44790345    -0.83000
H1908       H  0.88621651  0.18296974  0.39660292     0.12700
C1909       C  0.92905432  0.15961264  0.36412157     0.02100
N1910       N  0.96537818  0.12213089  0.40002140    -0.81600
H1911       H  0.94851659  0.11855215  0.45457226     0.17600
C1912       C  0.95749910  0.16373300  0.35546369    -0.26400
C1913       C  0.96518414  0.16456447  0.32652457     0.35600
C1914       C  0.94366586  0.16376163  0.30513078    -0.20400
C1915       C  0.91496412  0.16060580  0.31337018    -0.25700
C1916       C  0.90727357  0.15883227  0.34266435     0.27000
H1917       H  0.97413547  0.16614442  0.37148065     0.12700
N1918       N  0.99500539  0.16626547  0.31880061    -0.83000
H1919       H  0.89843278  0.16070629  0.29700947     0.17600
N1920       N  0.87746886  0.15715954  0.35042093    -0.81600
H1921       H  0.00033118  0.14745265  0.30782841     0.33200
H1922       H  0.00805334  0.16670982  0.33702668     0.37700
H1923       H  0.86451499  0.15598585  0.33213558     0.33200
H1924       H  0.87411419  0.13838008  0.36210906     0.29900
H1925       H  0.97614145  0.10963883  0.41530765     0.33200
H1926       H  0.95719242  0.10796145  0.38476143     0.29900
H1927       H  0.86229069  0.16769421  0.46932538     0.37700
H1928       H  0.86752462  0.19575578  0.44761462     0.33200
C1929       C  0.87249359  0.09542604  0.44623132    -0.20500
C1930       C  0.89048985  0.07891214  0.42812735     0.35700
C1931       C  0.88103554  0.07166979  0.40075568    -0.26500
C1932       C  0.85648925  0.08430032  0.38882871     0.02100
C1933       C  0.83951778  0.10273527  0.40622942     0.26900
C1934       C  0.84700751  0.10681857  0.43493918    -0.25600
N1935       N  0.91888130  0.07034983  0.43631682    -0.83000
H1936       H  0.89394447  0.05692767  0.38830877     0.12700
C1937       C  0.84973265  0.07861349  0.35819576     0.02100
N1938       N  0.81589891  0.11926846  0.39515421    -0.81600
H1939       H  0.83368516  0.12056596  0.44813596     0.17600
C1940       C  0.82173712  0.07063602  0.35110786    -0.26400
C1941       C  0.81370032  0.06578354  0.32270990     0.35600
C1942       C  0.83452181  0.06739466  0.30089619    -0.20400
C1943       C  0.86268646  0.07475143  0.30763883    -0.25700
C1944       C  0.87086292  0.07965822  0.33618576     0.27000
H1945       H  0.80623421  0.06690951  0.36789368     0.12700
N1946       N  0.78452639  0.05854006  0.31596478    -0.83000
H1947       H  0.87876476  0.07458892  0.29087786     0.17600
N1948       N  0.90079463  0.08317436  0.34282660    -0.81600
H1949       H  0.77195923  0.05808580  0.33448490     0.33200
H1950       H  0.77619111  0.07497368  0.30296389     0.37700
H1951       H  0.91316733  0.08368209  0.32417382     0.33200
H1952       H  0.90374739  0.10269096  0.35307324     0.29900
H1953       H  0.82223520  0.12970617  0.37634890     0.33200
H1954       H  0.79851926  0.10601566  0.39092839     0.29900
H1955       H  0.93308324  0.07897373  0.42140645     0.37700
H1956       H  0.92056321  0.04819313  0.43343368     0.33200
C1957       C  0.85536259  0.91570014  0.50823427    -0.20500
C1958       C  0.87057929  0.93743567  0.52289903     0.35700
C1959       C  0.85924920  0.96505456  0.52398016    -0.26500
C1960       C  0.83632005  0.97349786  0.50627114     0.02100
C1961       C  0.82117575  0.95222023  0.49124310     0.26900
C1962       C  0.82985959  0.92342253  0.49373862    -0.25600
N1963       N  0.89915618  0.93361500  0.53384458    -0.83000
H1964       H  0.87178357  0.98129030  0.53469790     0.12700
C1965       C  0.83715659  0.00389130  0.49680555     0.02100
N1966       N  0.79809946  0.95925997  0.47213772    -0.81600
H1967       H  0.81768579  0.90727247  0.48260846     0.17600
C1968       C  0.86289303  0.01159308  0.48362588    -0.26400
C1969       C  0.87377930  0.03904051  0.48683911     0.35600
C1970       C  0.85563911  0.06136831  0.49638813    -0.20400
C1971       C  0.82781498  0.05454702  0.50579814    -0.25700
C1972       C  0.81915044  0.02574584  0.50784179     0.27000
H1973       H  0.87694610  0.99483266  0.47559126     0.12700
N1974       N  0.90402686  0.04342925  0.48320416    -0.83000
H1975       H  0.81388079  0.07128843  0.51394604     0.17600
N1976       N  0.79313461  0.01933688  0.52268308    -0.81600
H1977       H  0.91330055  0.05118126  0.50203607     0.33200
H1978       H  0.91461846  0.02421955  0.47862851     0.37700
H1979       H  0.77915747  0.00942723  0.50843055     0.33200
H1980       H  0.79782151  0.00510092  0.53947941     0.29900
H1981       H  0.78157619  0.96855123  0.48399921     0.33200
H1982       H  0.80534460  0.97415160  0.45700789     0.29900
H1983       H  0.90731798  0.91338353  0.52946150     0.37700
H1984       H  0.89866778  0.93643826  0.55607398     0.33200
C1985       C  0.17306072  0.06297368  0.69768389    -0.20500
C1986       C  0.19596492  0.06976789  0.67926977     0.35700
C1987       C  0.19048319  0.07535478  0.65024136    -0.26500
C1988       C  0.16255377  0.07425145  0.63916030     0.02100
C1989       C  0.13955803  0.06712724  0.65759962     0.26900
C1990       C  0.14507009  0.06187633  0.68687553    -0.25600
N1991       N  0.22485615  0.07022865  0.69009774    -0.83000
H1992       H  0.20819048  0.08014084  0.63601898     0.12700
C1993       C  0.15802008  0.08103852  0.60830965     0.02100
N1994       N  0.11094230  0.06446970  0.64644494    -0.81600
H1995       H  0.12776525  0.05553008  0.70097902     0.17600
C1996       C  0.14292332  0.06191118  0.59083240    -0.26400
C1997       C  0.13635563  0.06877336  0.56227908     0.35600
C1998       C  0.14702885  0.09455569  0.55026379    -0.20400
C1999       C  0.16396851  0.11252907  0.56717644    -0.25700
C2000       C  0.16862040  0.10669043  0.59629561     0.27000
H2001       H  0.13510728  0.04196735  0.59978458     0.12700
N2002       N  0.11750157  0.04995870  0.54706454    -0.83000
H2003       H  0.17186429  0.13235040  0.55799852     0.17600
N2004       N  0.18307678  0.12727980  0.61393200    -0.81600
H2005       H  0.12852522  0.03071818  0.54369629     0.33200
H2006       H  0.11175510  0.05822034  0.52704666     0.37700
H2007       H  0.18932781  0.14498142  0.60180084     0.33200
H2008       H  0.16825008  0.13488622  0.62902130     0.29900
H2009       H  0.09662700  0.05897578  0.66279631     0.33200
H2010       H  0.10446930  0.08447853  0.63860715     0.29900
H2011       H  0.22607679  0.08679423  0.70507756     0.37700
H2012       H  0.23929624  0.07522349  0.67372576     0.33200
C2013       C  0.10314234  0.13694139  0.54931113    -0.20500
C2014       C  0.08337907  0.11860993  0.56313678     0.35700
C2015       C  0.07739522  0.12261767  0.59224215    -0.26500
C2016       C  0.09011742  0.14480050  0.60777990     0.02100
C2017       C  0.10850658  0.16422755  0.59357556     0.26900
C2018       C  0.11500813  0.15979739  0.56460817    -0.25600
N2019       N  0.07032297  0.09481705  0.54879740    -0.83000
H2020       H  0.06282163  0.10808270  0.60295766     0.12700
C2021       C  0.08222153  0.14811246  0.63826265     0.02100
N2022       N  0.12128501  0.18829276  0.60777241    -0.81600
H2023       H  0.13067923  0.17345706  0.55434159     0.17600
C2024       C  0.10192497  0.14098460  0.66005934    -0.26400
C2025       C  0.09486015  0.14466384  0.68921964     0.35600
C2026       C  0.06772740  0.15621092  0.69635457    -0.20400
C2027       C  0.04786183  0.16222593  0.67430621    -0.25700
C2028       C  0.05484519  0.15840998  0.64544580     0.27000
H2029       H  0.12284503  0.13269336  0.65424526     0.12700
N2030       N  0.11531333  0.13749998  0.71126032    -0.83000
H2031       H  0.02677908  0.17058806  0.67948716     0.17600
N2032       N  0.03438954  0.16534759  0.62328497    -0.81600
H2033       H  0.13451776  0.13025880  0.70216559     0.33200
H2034       H  0.10709015  0.12019001  0.72286644     0.37700
H2035       H  0.01502237  0.17241882  0.63218816     0.33200
H2036       H  0.04253057  0.18252291  0.61144173     0.29900
H2037       H  0.11368986  0.20688999  0.59759170     0.33200
H2038       H  0.11491391  0.18976989  0.62914519     0.29900
H2039       H  0.07494789  0.09494237  0.52693060     0.37700
H2040       H  0.04813875  0.09729487  0.55034681     0.33200
C2041       C  0.08483138  0.18078064  0.29727112    -0.20500
C2042       C  0.11180540  0.16771497  0.30248740     0.35700
C2043       C  0.12165227  0.16483669  0.33109264    -0.26500
C2044       C  0.10508823  0.17509523  0.35405947     0.02100
C2045       C  0.07990927  0.19068981  0.34839464     0.26900
C2046       C  0.06999774  0.19332847  0.32033374    -0.25600
N2047       N  0.12867181  0.15693274  0.27909980    -0.83000
H2048       H  0.14154967  0.15360431  0.33558165     0.12700
C2049       C  0.11035447  0.16499214  0.38371810     0.02100
N2050       N  0.06352373  0.20263295  0.37148218    -0.81600
H2051       H  0.04981655  0.20448210  0.31693909     0.17600
C2052       C  0.13291495  0.17568357  0.40032988    -0.26400
C2053       C  0.13606953  0.16755091  0.42934099     0.35600
C2054       C  0.11606084  0.14837631  0.44189865    -0.20400
C2055       C  0.09320418  0.13865273  0.42505129    -0.25700
C2056       C  0.09064040  0.14610830  0.39618802     0.27000
H2057       H  0.14799211  0.19049361  0.39080260     0.12700
N2058       N  0.16003657  0.17864828  0.44511777    -0.83000
H2059       H  0.07796160  0.12370158  0.43349686     0.17600
N2060       N  0.06811192  0.13401980  0.37922297    -0.81600
H2061       H  0.15768703  0.20095809  0.44577965     0.33200
H2062       H  0.15992307  0.17164097  0.46639680     0.37700
H2063       H  0.07046846  0.11171994  0.37950908     0.33200
H2064       H  0.04850960  0.13917024  0.38880633     0.29900
H2065       H  0.06146433  0.22469033  0.36788545     0.33200
H2066       H  0.04301589  0.19375037  0.37093859     0.29900
H2067       H  0.13450974  0.17446276  0.26639424     0.37700
H2068       H  0.14782384  0.14793701  0.28676556     0.33200
C2069       C  0.15180636  0.09892892  0.44240894    -0.20500
C2070       C  0.13432758  0.08297968  0.42337478     0.35700
C2071       C  0.14451253  0.07705916  0.39609245    -0.26500
C2072       C  0.17026690  0.08863749  0.38634193     0.02100
C2073       C  0.18789586  0.10400641  0.40522971     0.26900
C2074       C  0.17881369  0.10837636  0.43345784    -0.25600
N2075       N  0.10609104  0.07292450  0.43051843    -0.83000
H2076       H  0.13125858  0.06466313  0.38166148     0.12700
C2077       C  0.17702408  0.08512778  0.35582665     0.02100
N2078       N  0.21420793  0.11630278  0.39550247    -0.81600
H2079       H  0.19198646  0.12086390  0.44786192     0.17600
C2080       C  0.15599625  0.09280843  0.33545820    -0.26400
C2081       C  0.15846431  0.08429607  0.30678746     0.35600
C2082       C  0.18309578  0.06903539  0.29838247    -0.20400
C2083       C  0.20483139  0.06288887  0.31847788    -0.25700
C2084       C  0.20165330  0.07013619  0.34723532     0.27000
H2085       H  0.13658669  0.10352946  0.34249779     0.12700
N2086       N  0.13528817  0.08916310  0.28693805    -0.83000
H2087       H  0.22372757  0.05081471  0.31219124     0.17600
N2088       N  0.22230729  0.06027233  0.36790646    -0.81600
H2089       H  0.11851162  0.10018515  0.29692468     0.33200
H2090       H  0.12709781  0.06914360  0.28127104     0.37700
H2091       H  0.22337175  0.03790471  0.36684787     0.33200
H2092       H  0.24234185  0.06831800  0.36206325     0.29900
H2093       H  0.21299405  0.13845808  0.39858591     0.33200
H2094       H  0.23079031  0.10826798  0.40843821     0.29900
H2095       H  0.09869611  0.08183236  0.44954999     0.37700
H2096       H  0.09179054  0.07969778  0.41447588     0.33200
C2097       C  0.07864187  0.15410576  0.49356739    -0.20500
C2098       C  0.07090765  0.18154180  0.50415597     0.35700
C2099       C  0.04158429  0.18859905  0.50716311    -0.26500
C2100       C  0.02033851  0.16944448  0.49815431     0.02100
C2101       C  0.02846257  0.14397964  0.48431311     0.26900
C2102       C  0.05712976  0.13583581  0.48380520    -0.25600
N2103       N  0.09193186  0.20230350  0.51233193    -0.83000
H2104       H  0.03542758  0.20835824  0.51766694     0.12700
C2105       C  0.99068967  0.17108496  0.50918579     0.02100
N2106       N  0.00721156  0.12517450  0.47282535    -0.81600
H2107       H  0.06248847  0.11432219  0.47690311     0.17600
C2108       C  0.96940221  0.18726794  0.49512775    -0.26400
C2109       C  0.94024460  0.17965147  0.49783353     0.35600
C2110       C  0.93290722  0.15409499  0.51258461    -0.20400
C2111       C  0.95416883  0.14072287  0.52928552    -0.25700
C2112       C  0.98246433  0.14979781  0.52877995     0.27000
H2113       H  0.97544223  0.20452096  0.48076818     0.12700
N2114       N  0.91850777  0.19755192  0.48533955    -0.83000
H2115       H  0.94976059  0.12130226  0.54074582     0.17600
N2116       N  0.00359650  0.13477498  0.54549778    -0.81600
H2117       H  0.92383936  0.20109208  0.46384382     0.33200
H2118       H  0.91933865  0.21742679  0.49554168     0.37700
H2119       H  0.99813952  0.13689929  0.56712472     0.33200
H2120       H  0.00239140  0.11303830  0.54030226     0.29900
H2121       H  0.01189611  0.12204422  0.45113142     0.33200
H2122       H  0.00902389  0.10536689  0.48328055     0.29900
H2123       H  0.11269964  0.19466309  0.50865204     0.37700
H2124       H  0.08985244  0.20589084  0.53434326     0.33200
C2125       C  0.07026777  0.81201256  0.69403728    -0.20500
C2126       C  0.08874494  0.83415255  0.68516354     0.35700
C2127       C  0.09626898  0.83637074  0.65592798    -0.26500
C2128       C  0.08572473  0.81708058  0.63549174     0.02100
C2129       C  0.06827004  0.79431836  0.64446946     0.26900
C2130       C  0.06075523  0.79204265  0.67355402    -0.25600
N2131       N  0.09923180  0.85462336  0.70550151    -0.83000
H2132       H  0.11000353  0.85351529  0.64889387     0.12700
C2133       C  0.09337462  0.82094724  0.60481970     0.02100
N2134       N  0.05864251  0.77333668  0.62416583    -0.81600
H2135       H  0.04704605  0.77458546  0.68020149     0.17600
C2136       C  0.11997693  0.81086997  0.59507939    -0.26400
C2137       C  0.12948481  0.81676641  0.56711891     0.35600
C2138       C  0.11174620  0.83299144  0.54823061    -0.20400
C2139       C  0.08423508  0.84128315  0.55749640    -0.25700
C2140       C  0.07515900  0.83609264  0.58580529     0.27000
H2141       H  0.13397885  0.79926721  0.60972493     0.12700
N2142       N  0.15778190  0.80727694  0.55920794    -0.83000
H2143       H  0.07094794  0.85441866  0.54352313     0.17600
N2144       N  0.04862226  0.84819331  0.59594548    -0.81600
H2145       H  0.15811661  0.78490363  0.56050687     0.33200
H2146       H  0.16240456  0.81238232  0.53789218     0.37700
H2147       H  0.03844184  0.85991196  0.57964687     0.33200
H2148       H  0.03490105  0.83136506  0.60117198     0.29900
H2149       H  0.04663269  0.75749339  0.63445218     0.33200
H2150       H  0.04476966  0.78349209  0.60966438     0.29900
H2151       H  0.08164707  0.86646741  0.71286770     0.37700
H2152       H  0.11290224  0.86923103  0.69544753     0.33200
C2153       C  0.14915573  0.88111890  0.55432406    -0.20500
C2154       C  0.17697790  0.87917008  0.56599988     0.35700
C2155       C  0.18142964  0.88766900  0.59451418    -0.26500
C2156       C  0.15856737  0.89803946  0.61112215     0.02100
C2157       C  0.13090189  0.90029860  0.59910579     0.26900
C2158       C  0.12657943  0.89168722  0.57108564    -0.25600
N2159       N  0.20015433  0.86743823  0.54940077    -0.83000
H2160       H  0.20266284  0.88612465  0.60389711     0.12700
C2161       C  0.16370280  0.90633940  0.64098436     0.02100
N2162       N  0.10666264  0.91083379  0.61486389    -0.81600
H2163       H  0.10511483  0.89299648  0.56242477     0.17600
C2164       C  0.15962062  0.93505439  0.64843563    -0.26400
C2165       C  0.16289809  0.94390494  0.67675430     0.35600
C2166       C  0.17128436  0.92368641  0.69777545    -0.20400
C2167       C  0.17540590  0.89487484  0.69047095    -0.25700
C2168       C  0.17192403  0.88596584  0.66196192     0.27000
H2169       H  0.15400259  0.95064600  0.63200945     0.12700
N2170       N  0.15798233  0.97340832  0.68430926    -0.83000
H2171       H  0.18255410  0.87969571  0.70669635     0.17600
N2172       N  0.17768816  0.85673485  0.65402637    -0.81600
H2173       H  0.15204203  0.98551162  0.66626443     0.33200
H2174       H  0.14056048  0.97402898  0.69837233     0.37700
H2175       H  0.18346703  0.84455445  0.67206022     0.33200
H2176       H  0.15880685  0.84793715  0.64604006     0.29900
H2177       H  0.10970826  0.93244596  0.61952887     0.33200
H2178       H  0.10496086  0.89947050  0.63411598     0.29900
H2179       H  0.20420449  0.88156300  0.53247073     0.37700
H2180       H  0.21894737  0.86653551  0.56164014     0.33200
C2181       C  0.12190230  0.83997313  0.44091903    -0.20500
C2182       C  0.10411581  0.85414921  0.42070800     0.35700
C2183       C  0.10261188  0.84398123  0.39274662    -0.26500
C2184       C  0.12007018  0.82141009  0.38361992     0.02100
C2185       C  0.13795559  0.80697344  0.40357449     0.26900
C2186       C  0.13788966  0.81590240  0.43228053    -0.25600
N2187       N  0.08790388  0.87918815  0.42793180    -0.83000
H2188       H  0.08800808  0.85429688  0.37772555     0.12700
C2189       C  0.11718432  0.81316787  0.35334843     0.02100
N2190       N  0.15671625  0.78382821  0.39548302    -0.81600
H2191       H  0.15190696  0.80518720  0.44757067     0.17600
C2192       C  0.12722199  0.83192221  0.33198392    -0.26400
C2193       C  0.11656733  0.83059837  0.30377641     0.35600
C2194       C  0.09588169  0.80982147  0.29709396    -0.20400
C2195       C  0.08824934  0.78933018  0.31795274    -0.25700
C2196       C  0.09845415  0.79097716  0.34608513     0.27000
H2197       H  0.14164295  0.84897672  0.33785711     0.12700
N2198       N  0.12540739  0.85115539  0.28258857    -0.83000
H2199       H  0.07301620  0.77272258  0.31273717     0.17600
N2200       N  0.08799743  0.77176410  0.36785545    -0.81600
H2201       H  0.14195755  0.86379493  0.29061095     0.33200
H2202       H  0.10801948  0.86487505  0.27859932     0.37700
H2203       H  0.07325195  0.75742426  0.35917832     0.33200
H2204       H  0.10535252  0.75940979  0.37511481     0.29900
H2205       H  0.17774098  0.79040211  0.39945203     0.33200
H2206       H  0.15550772  0.77978566  0.37352220     0.29900
H2207       H  0.09365976  0.89560134  0.41376549     0.37700
H2208       H  0.06629210  0.87483803  0.42404433     0.33200
C2209       C  0.15815070  0.88905658  0.44661626    -0.20500
C2210       C  0.14609114  0.91411845  0.43428628     0.35700
C2211       C  0.15190997  0.92073328  0.40538069    -0.26500
C2212       C  0.16830236  0.90213664  0.38827492     0.02100
C2213       C  0.18112099  0.87763466  0.40112580     0.26900
C2214       C  0.17695744  0.87220974  0.43027748    -0.25600
N2215       N  0.12706935  0.93208504  0.45059748    -0.83000
H2216       H  0.14265205  0.93988986  0.39579886     0.12700
C2217       C  0.17155934  0.90845256  0.35715792     0.02100
N2218       N  0.19640486  0.85653027  0.38480895    -0.81600
H2219       H  0.18604849  0.85281634  0.43956040     0.17600
C2220       C  0.19919877  0.91174303  0.34602038    -0.26400
C2221       C  0.20353393  0.91744321  0.31685434     0.35600
C2222       C  0.17968245  0.92077645  0.29847588    -0.20400
C2223       C  0.15195413  0.91810457  0.30945612    -0.25700
C2224       C  0.14758567  0.91201724  0.33873384     0.27000
H2225       H  0.21751102  0.91068294  0.36030564     0.12700
N2226       N  0.23212374  0.92084209  0.30587132    -0.83000
H2227       H  0.13374301  0.92194454  0.29544176     0.17600
N2228       N  0.11898327  0.91031204  0.34993574    -0.81600
H2229       H  0.24729971  0.91802024  0.32220231     0.33200
H2230       H  0.23572759  0.90447641  0.29103873     0.37700
H2231       H  0.10386733  0.91350216  0.33359918     0.33200
H2232       H  0.11613255  0.88949749  0.35748158     0.29900
H2233       H  0.21509794  0.86540077  0.37652567     0.33200
H2234       H  0.18339204  0.84979286  0.36789342     0.29900
H2235       H  0.10980800  0.91986542  0.45767256     0.37700
H2236       H  0.11831673  0.94819283  0.43751228     0.33200
C2237       C  0.16028723  0.91724312  0.50449910    -0.20500
C2238       C  0.14093545  0.93801574  0.51559833     0.35700
C2239       C  0.14985346  0.96618561  0.51867809    -0.26500
C2240       C  0.17527788  0.97587990  0.50609077     0.02100
C2241       C  0.19474987  0.95555953  0.49463858     0.26900
C2242       C  0.18739853  0.92629763  0.49493461    -0.25600
N2243       N  0.11087788  0.93272380  0.51985684    -0.83000
H2244       H  0.13444407  0.98170028  0.52668805     0.12700
C2245       C  0.17514536  0.00672979  0.49804672     0.02100
N2246       N  0.22107530  0.96384807  0.48108325    -0.81600
H2247       H  0.20216009  0.91077288  0.48587801     0.17600
C2248       C  0.19271838  0.02699592  0.51162535    -0.26400
C2249       C  0.18668841  0.05668402  0.50905294     0.35600
C2250       C  0.16106284  0.06570472  0.49503549    -0.20400
C2251       C  0.14434727  0.04500205  0.48159787    -0.25700
C2252       C  0.15236015  0.01639539  0.48073378     0.27000
H2253       H  0.21062206  0.01977479  0.52468202     0.12700
N2254       N  0.20663108  0.07669823  0.52095362    -0.83000
H2255       H  0.12357312  0.05060476  0.47357940     0.17600
N2256       N  0.13583949  0.99644433  0.46426177    -0.81600
H2257       H  0.20688442  0.07379289  0.54319839     0.33200
H2258       H  0.20021321  0.09780909  0.51676989     0.37700
H2259       H  0.11921653  0.00692736  0.45324646     0.33200
H2260       H  0.14952952  0.98811187  0.44860267     0.29900
H2261       H  0.23788953  0.95457988  0.49284126     0.33200
H2262       H  0.22398258  0.98597029  0.48200419     0.29900
H2263       H  0.10495605  0.91180997  0.51499012     0.37700
H2264       H  0.10576208  0.93707120  0.54121352     0.33200
C2265       C  0.08414498  0.83003894  0.49052294    -0.20500
C2266       C  0.07355783  0.80277236  0.49855748     0.35700
C2267       C  0.04363278  0.79849616  0.49896461    -0.26500
C2268       C  0.02472439  0.82039059  0.48987163     0.02100
C2269       C  0.03585857  0.84607017  0.47871349     0.26900
C2270       C  0.06491802  0.85135169  0.48146666    -0.25600
N2271       N  0.09222753  0.77966548  0.50720793    -0.83000
H2272       H  0.03515367  0.77864009  0.50746282     0.12700
C2273       C  0.99385914  0.81998503  0.49710231     0.02100
N2274       N  0.01706142  0.86762577  0.46669317    -0.81600
H2275       H  0.07255311  0.87287953  0.47770591     0.17600
C2276       C  0.98362218  0.84332033  0.51288182    -0.26400
C2277       C  0.95453470  0.84922819  0.51469445     0.35600
C2278       C  0.93453931  0.82952604  0.50370461    -0.20400
C2279       C  0.94458041  0.80474303  0.48969000    -0.25700
C2280       C  0.97430930  0.80011375  0.48569559     0.27000
H2281       H  0.99853613  0.85843258  0.52216381     0.12700
N2282       N  0.94535597  0.87500076  0.52854919    -0.83000
H2283       H  0.92925481  0.78995220  0.48066594     0.17600
N2284       N  0.98457822  0.77616315  0.46933458    -0.81600
H2285       H  0.95469287  0.89236062  0.51790063     0.33200
H2286       H  0.95337519  0.87476418  0.54950300     0.37700
H2287       H  0.96739280  0.76373511  0.46233111     0.33200
H2288       H  0.99445806  0.78428885  0.45091606     0.29900
H2289       H  0.02858107  0.88564803  0.46017748     0.33200
H2290       H  0.00782017  0.85901215  0.44821241     0.29900
H2291       H  0.11373214  0.78543050  0.50525269     0.37700
H2292       H  0.08846347  0.77550561  0.52893815     0.33200
loop_ 
_geom_bond_atom_site_label_1 
_geom_bond_atom_site_label_2 
_geom_bond_distance 
_geom_bond_site_symmetry_2 
_ccdc_geom_bond_type 
C1            C2   1.411       .  A
C1            C6   1.420       .  A
C1         C2138   1.500       .  S
C2            C3   1.413       .  A
C2         C2265   1.483       .  S
C3            C4   1.418       .  A
C3         C2181   1.490       .  S
C4            C5   1.414       .  A
C4         C2209   1.492       .  S
C5            C6   1.419       .  A
C5         C2237   1.495       .  S
C6         C2153   1.483       .  S
C7            C8   1.420       .  A
C7           C12   1.416       .  A
C7         C2013   1.488       .  S
C8            C9   1.411       .  A
C8         C1998   1.487       .  S
C9           C10   1.417       .  A
C9         C2250   1.500       .  S
C10          C11   1.416       .  A
C10        C2069   1.475       .  S
C11          C12   1.412       .  A
C11        C2054   1.500       .  S
C12        C2097   1.486       .  S
C13          C14   1.423       .  A
C13          C18   1.417       .  A
C13        C1886   1.504       .  S
C14          C15   1.426       .  A
C14        C1845   1.492       .  S
C15          C16   1.421       .  A
C15        C2110   1.505       .  S
C16          C17   1.417       .  A
C16        C1901   1.489       .  S
C17          C18   1.418       .  A
C17        C1929   1.495       .  S
C18        C1970   1.492       .  S
C19          C20   1.417       .  A
C19          C24   1.411       .  A
C19        C1830   1.491       .  S
C20          C21   1.428       .  A
C20        C2278   1.481       .  S
C21          C22   1.435       .  A
C21        C1733   1.536       .  S
C22          C23   1.424       .  A
C22        C1761   1.491       .  S
C23          C24   1.410       .  A
C23        C1957   1.503       .  S
C24        C1789   1.490       .  S
C25          C26   1.419       .  A
C25          C30   1.412       .  A
C25        C1565   1.488       .  S
C26          C27   1.408       .  A
C26        C1593   1.484       .  S
C27          C28   1.413       .  A
C27        C1705   1.483       .  S
C28          C29   1.417       .  A
C28        C1649   1.497       .  S
C29          C30   1.415       .  A
C29        C1634   1.480       .  S
C30        C1690   1.493       .  S
C31          C32   1.416       .  A
C31          C36   1.415       .  A
C31        C1509   1.482       .  S
C32          C33   1.425       .  A
C32        C1718   1.505       .  S
C33          C34   1.428       .  A
C33        C1453   1.493       .  S
C34          C35   1.416       .  A
C34        C1425   1.506       .  S
C35          C36   1.407       .  A
C35        C1550   1.481       .  S
C36        C1481   1.491       .  S
C37          C38   1.413       .  A
C37          C42   1.422       .  A
C37        C1354   1.488       .  S
C38          C39   1.413       .  A
C38        C1677   1.497       .  S
C39          C40   1.420       .  A
C39        C1298   1.497       .  S
C40          C41   1.413       .  A
C40        C1313   1.479       .  S
C41          C42   1.419       .  A
C41        C1397   1.506       .  S
C42        C1382   1.485       .  S
C43          C44   1.411       .  A
C43          C48   1.421       .  A
C43        C1242   1.495       .  S
C44          C45   1.411       .  A
C44        C1537   1.488       .  S
C45          C46   1.425       .  A
C45        C1186   1.496       .  S
C46          C47   1.424       .  A
C46        C1201   1.496       .  S
C47          C48   1.421       .  A
C47        C1410   1.508       .  S
C48        C1257   1.489       .  S
C49          C50   1.425       .  A
C49          C54   1.420       .  A
C49        C1074   1.510       .  S
C50          C51   1.422       .  A
C50        C1145   1.482       .  S
C51          C52   1.415       .  A
C51        C1005   1.493       .  S
C52          C53   1.408       .  A
C52        C1033   1.495       .  S
C53          C54   1.416       .  A
C53        C1117   1.484       .  S
C54        C1089   1.487       .  S
C55          C56   1.414       .  A
C55          C60   1.415       .  A
C55         C893   1.471       .  S
C56          C57   1.403       .  A
C56        C1130   1.488       .  S
C57          C58   1.412       .  A
C57         C962   1.486       .  S
C58          C59   1.410       .  A
C58         C934   1.475       .  S
C59          C60   1.406       .  A
C59         C990   1.478       .  S
C60         C865   1.498       .  S
C61          C62   1.425       .  A
C61          C66   1.411       .  A
C61         C738   1.485       .  S
C62          C63   1.432       .  A
C62         C977   1.507       .  S
C63          C64   1.449       .  A
C63         C781   1.544       .  S
C64          C65   1.425       .  A
C64         C809   1.491       .  S
C65          C66   1.405       .  A
C65         C850   1.498       .  S
C66         C753   1.498       .  S
C67          C68   1.411       .  A
C67          C72   1.415       .  A
C67         C626   1.501       .  S
C68          C69   1.413       .  A
C68        C1158   1.485       .  S
C69          C70   1.420       .  A
C69         C669   1.475       .  S
C70          C71   1.407       .  A
C70         C697   1.490       .  S
C71          C72   1.412       .  A
C71         C837   1.496       .  S
C72         C641   1.469       .  S
N73          N74   1.331       .  A
N73          N79   1.320       .  A
N73        Mn102   2.248       .  S
N74          C81   1.361       .  A
N75          N77   1.319       .  A
N75          N76   1.310       .  A
N75         Mn91   2.179       .  S
N76          C82   1.343       .  A
N77          N78   1.327       .  A
N77        Mn102   2.228       .  S
N78          C82   1.358       .  A
N79          N80   1.316       .  A
N79         Mn91   2.200       .  S
N80          C81   1.347       .  A
C81         C498   1.480       .  S
C82         C251   1.460       .  S
N83          N89   1.311       .  A
N83          N84   1.313       .  A
N83        Mn113   2.164       .  S
N84          C92   1.348       .  A
N85          N86   1.323       .  A
N85          N87   1.311       .  A
N85         Mn91   2.196       .  S
N86          C93   1.355       .  A
N87          N88   1.310       .  A
N87        Mn113   2.154       .  S
N88          C93   1.344       .  A
N89          N90   1.325       .  A
N89         Mn91   2.210       .  S
N90          C92   1.358       .  A
Mn91       Cl115   2.527       .  S
C92        C1229   1.479       .  S
C93        C2166   1.458       .  S
N94          N95   1.333       .  A
N94         N100   1.320       .  A
N94        Mn102   2.252   1_545  S
N95         C103   1.362       .  A
N96          N98   1.320       .  A
N96          N97   1.312       .  A
N96        Mn114   2.204       .  S
N97         C104   1.347       .  A
N98          N99   1.330       .  A
N98        Mn102   2.226   1_545  S
N99         C104   1.358       .  A
N100        N101   1.314       .  A
N100       Mn114   2.199       .  S
N101        C103   1.347       .  A
Mn102      Cl115   2.578       .  S
C103        C374   1.481       .  S
C104        C126   1.469       .  S
N105        N106   1.313       .  A
N105        N111   1.312       .  A
N105       Mn113   2.155   1_545  S
N106        C116   1.343       .  A
N107        N108   1.330       .  A
N107        N109   1.311       .  A
N107       Mn114   2.235       .  S
N108        C117   1.364       .  A
N109        N110   1.309       .  A
N109       Mn113   2.152   1_545  S
N110        C117   1.345       .  A
N111        N112   1.326       .  A
N111       Mn114   2.220       .  S
N112        C116   1.359       .  A
Mn113      Cl115   2.549       .  S
Mn114      Cl115   2.524   1_545  S
C116       C1985   1.466       .  S
C117       C1494   1.487       .  S
N118        N119   1.331       .  A
N118        N124   1.319       .  A
N118       Mn147   2.237       .  S
N119        C126   1.361       .  A
N120        N122   1.321       .  A
N120        N121   1.313       .  A
N120       Mn136   2.193       .  S
N121        C127   1.345       .  A
N122        N123   1.329       .  A
N122       Mn147   2.243       .  S
N123        C127   1.360       .  A
N124        N125   1.310       .  A
N124       Mn136   2.183       .  S
N125        C126   1.343       .  A
C127        C373   1.469       .  S
N128        N134   1.310       .  A
N128        N129   1.315       .  A
N128       Mn158   2.162       .  S
N129        C137   1.347       .  A
N130        N131   1.326       .  A
N130        N132   1.310       .  A
N130       Mn136   2.216       .  S
N131        C138   1.361       .  A
N132        N133   1.310       .  A
N132       Mn158   2.152       .  S
N133        C138   1.346       .  A
N134        N135   1.326       .  A
N134       Mn136   2.215       .  S
N135        C137   1.359       .  A
Mn136      Cl160   2.522       .  S
C137       C1061   1.480       .  S
C138       C2026   1.481       .  S
N139        N140   1.331       .  A
N139        N145   1.318       .  A
N139       Mn147   2.236   1_655  S
N140        C148   1.360       .  A
N141        N143   1.322       .  A
N141        N142   1.316       .  A
N141       Mn159   2.219       .  S
N142        C149   1.350       .  A
N143        N144   1.331       .  A
N143       Mn147   2.244   1_655  S
N144        C149   1.359       .  A
N145        N146   1.311       .  A
N145       Mn159   2.179       .  S
N146        C148   1.343       .  A
Mn147      Cl160   2.578       .  S
C148        C477   1.468       .  S
C149        C531   1.482       .  S
N150        N151   1.308       .  A
N150        N156   1.310       .  A
N150       Mn158   2.148   1_655  S
N151        C161   1.342       .  A
N152        N153   1.326       .  A
N152        N154   1.312       .  A
N152       Mn159   2.222       .  S
N153        C162   1.360       .  A
N154        N155   1.309       .  A
N154       Mn158   2.145   1_655  S
N155        C162   1.344       .  A
N156        N157   1.328       .  A
N156       Mn159   2.217       .  S
N157        C161   1.363       .  A
Mn158      Cl160   2.547       .  S
Mn159      Cl160   2.524   1_655  S
C161       C1858   1.484       .  S
C162        C682   1.472       .  S
N163        N164   1.331       .  A
N163        N169   1.320       .  A
N163       Mn192   2.239       .  S
N164        C171   1.360       .  A
N165        N167   1.319       .  A
N165        N166   1.312       .  A
N165       Mn181   2.190       .  S
N166        C172   1.345       .  A
N167        N168   1.331       .  A
N167       Mn192   2.240       .  S
N168        C172   1.361       .  A
N169        N170   1.312       .  A
N169       Mn181   2.192       .  S
N170        C171   1.345       .  A
C171        C318   1.472       .  S
C172        C227   1.473       .  S
N173        N179   1.311       .  A
N173        N174   1.314       .  A
N173       Mn203   2.168       .  S
N174        C182   1.347       .  A
N175        N176   1.326       .  A
N175        N177   1.311       .  A
N175       Mn181   2.214       .  S
N176        C183   1.359       .  A
N177        N178   1.310       .  A
N177       Mn203   2.152       .  S
N178        C183   1.345       .  A
N179        N180   1.325       .  A
N179       Mn181   2.206       .  S
N180        C182   1.357       .  A
Mn181      Cl205   2.527       .  S
C182        C878   1.473       .  S
C183       C2194   1.476       .  S
N184        N185   1.330       .  A
N184        N190   1.322       .  A
N184       Mn192   2.237   1_655  S
N185        C193   1.357       .  A
N186        N188   1.321       .  A
N186        N187   1.317       .  A
N186       Mn204   2.216       .  S
N187        C194   1.350       .  A
N188        N189   1.330       .  A
N188       Mn192   2.239   1_655  S
N189        C194   1.358       .  A
N190        N191   1.316       .  A
N190       Mn204   2.211       .  S
N191        C193   1.349       .  A
Mn192      Cl205   2.578       .  S
C193        C577   1.477       .  S
C194        C431   1.480       .  S
N195        N196   1.313       .  A
N195        N201   1.313       .  A
N195       Mn203   2.159   1_655  S
N196        C206   1.345       .  A
N197        N198   1.330       .  A
N197        N199   1.312       .  A
N197       Mn204   2.245       .  S
N198        C207   1.364       .  A
N199        N200   1.311       .  A
N199       Mn203   2.151   1_655  S
N200        C207   1.343       .  A
N201        N202   1.326       .  A
N201       Mn204   2.227       .  S
N202        C206   1.359       .  A
Mn203      Cl205   2.549       .  S
Mn204      Cl205   2.532   1_655  S
C206       C1817   1.472       .  S
C207        C725   1.485       .  S
N208        N209   1.311       .  A
N208        N214   1.313       .  A
N208       Mn237   2.154   1_554  S
N209        C216   1.344       .  A
N210        N212   1.310       .  A
N210        N211   1.324       .  A
N210       Mn226   2.203       .  S
N211        C217   1.358       .  A
N212        N213   1.305       .  A
N212       Mn237   2.123   1_554  S
N213        C217   1.338       .  A
N214        N215   1.324       .  A
N214       Mn226   2.210       .  S
N215        C216   1.357       .  A
C216       C1369   1.466       .  S
C217        C906   1.453       .  S
N218        N224   1.319       .  A
N218        N219   1.331       .  A
N218       Mn248   2.233   1_554  S
N219        C227   1.360       .  A
N220        N221   1.315       .  A
N220        N222   1.318       .  A
N220       Mn226   2.188       .  S
N221        C228   1.346       .  A
N222        N223   1.334       .  A
N222       Mn248   2.265   1_554  S
N223        C228   1.365       .  A
N224        N225   1.312       .  A
N224       Mn226   2.198       .  S
N225        C227   1.347       .  A
Mn226      Cl250   2.525   1_554  S
C228        C317   1.487       .  S
N229        N230   1.316       .  A
N229        N235   1.312       .  A
N229       Mn237   2.170       .  S
N230        C238   1.347       .  A
N231        N233   1.311       .  A
N231        N232   1.329       .  A
N231       Mn249   2.239       .  S
N232        C239   1.362       .  A
N233        N234   1.312       .  A
N233       Mn237   2.145       .  S
N234        C239   1.344       .  A
N235        N236   1.329       .  A
N235       Mn249   2.245       .  S
N236        C238   1.364       .  A
Mn237      Cl250   2.540       .  S
C238       C1046   1.490       .  S
C239       C1270   1.477       .  S
N240        N241   1.326       .  A
N240        N246   1.322       .  A
N240       Mn248   2.217       .  S
N241        C251   1.354       .  A
N242        N243   1.316       .  A
N242        N244   1.322       .  A
N242       Mn249   2.202       .  S
N243        C252   1.347       .  A
N244        N245   1.331       .  A
N244       Mn248   2.252       .  S
N245        C252   1.360       .  A
N246        N247   1.312       .  A
N246       Mn249   2.202       .  S
N247        C251   1.347       .  A
Mn248      Cl250   2.587       .  S
Mn249      Cl250   2.528       .  S
C252        C497   1.481       .  S
N253        N254   1.310       .  A
N253        N259   1.311       .  A
N253       Mn282   2.154       .  S
N254        C261   1.345       .  A
N255        N257   1.312       .  A
N255        N256   1.325       .  A
N255       Mn271   2.221       .  S
N256        C262   1.360       .  A
N257        N258   1.309       .  A
N257       Mn282   2.142       .  S
N258        C262   1.343       .  A
N259        N260   1.328       .  A
N259       Mn271   2.218       .  S
N260        C261   1.361       .  A
C261       C2041   1.485       .  S
C262        C921   1.469       .  S
N263        N269   1.318       .  A
N263        N264   1.334       .  A
N263       Mn293   2.254       .  S
N264        C272   1.363       .  A
N265        N266   1.316       .  A
N265        N267   1.321       .  A
N265       Mn271   2.219       .  S
N266        C273   1.351       .  A
N267        N268   1.329       .  A
N267       Mn293   2.232       .  S
N268        C273   1.357       .  A
N269        N270   1.314       .  A
N269       Mn271   2.188       .  S
N270        C272   1.345       .  A
Mn271      Cl295   2.534       .  S
C272        C352   1.482       .  S
C273        C341   1.477       .  S
N274        N275   1.315       .  A
N274        N280   1.311       .  A
N274       Mn282   2.165   1_655  S
N275        C283   1.345       .  A
N276        N278   1.312       .  A
N276        N277   1.331       .  A
N276       Mn294   2.236       .  S
N277        C284   1.365       .  A
N278        N279   1.309       .  A
N278       Mn282   2.154   1_655  S
N279        C284   1.343       .  A
N280        N281   1.328       .  A
N280       Mn294   2.225       .  S
N281        C283   1.360       .  A
Mn282      Cl295   2.528       .  S
C283        C794   1.475       .  S
C284       C1914   1.483       .  S
N285        N286   1.331       .  A
N285        N291   1.320       .  A
N285       Mn293   2.240   1_655  S
N286        C296   1.359       .  A
N287        N288   1.314       .  A
N287        N289   1.322       .  A
N287       Mn294   2.207       .  S
N288        C297   1.347       .  A
N289        N290   1.328       .  A
N289       Mn293   2.232   1_655  S
N290        C297   1.357       .  A
N291        N292   1.312       .  A
N291       Mn294   2.189       .  S
N292        C296   1.345       .  A
Mn293      Cl295   2.586       .  S
Mn294      Cl295   2.536   1_655  S
C296        C408   1.471       .  S
C297        C452   1.468       .  S
N298        N299   1.310       .  A
N298        N304   1.310       .  A
N298       Mn327   2.129       .  S
N299        C306   1.340       .  A
N300        N302   1.311       .  A
N300        N301   1.331       .  A
N300       Mn316   2.243       .  S
N301        C307   1.366       .  A
N302        N303   1.308       .  A
N302       Mn327   2.136       .  S
N303        C307   1.340       .  A
N304        N305   1.328       .  A
N304       Mn316   2.232       .  S
N305        C306   1.361       .  A
C306       C2222   1.466       .  S
C307       C1341   1.480       .  S
N308        N314   1.321       .  A
N308        N309   1.332       .  A
N308       Mn338   2.250       .  S
N309        C317   1.360       .  A
N310        N311   1.311       .  A
N310        N312   1.320       .  A
N310       Mn316   2.195       .  S
N311        C318   1.345       .  A
N312        N313   1.332       .  A
N312       Mn338   2.240       .  S
N313        C318   1.361       .  A
N314        N315   1.317       .  A
N314       Mn316   2.214       .  S
N315        C317   1.350       .  A
Mn316      Cl340   2.529       .  S
N319        N320   1.307       .  A
N319        N325   1.309       .  A
N319       Mn327   2.132   1_545  S
N320        C328   1.341       .  A
N321        N323   1.311       .  A
N321        N322   1.324       .  A
N321       Mn339   2.207       .  S
N322        C329   1.358       .  A
N323        N324   1.308       .  A
N323       Mn327   2.138   1_545  S
N324        C329   1.342       .  A
N325        N326   1.327       .  A
N325       Mn339   2.217       .  S
N326        C328   1.362       .  A
Mn327      Cl340   2.523       .  S
C328       C1621   1.475       .  S
C329       C2082   1.462       .  S
N330        N331   1.332       .  A
N330        N336   1.319       .  A
N330       Mn338   2.256   1_545  S
N331        C341   1.363       .  A
N332        N333   1.313       .  A
N332        N334   1.321       .  A
N332       Mn339   2.191       .  S
N333        C342   1.346       .  A
N334        N335   1.327       .  A
N334       Mn338   2.232   1_545  S
N335        C342   1.357       .  A
N336        N337   1.313       .  A
N336       Mn339   2.183       .  S
N337        C341   1.343       .  A
Mn338      Cl340   2.583       .  S
Mn339      Cl340   2.532   1_545  S
C342        C351   1.464       .  S
N343        N344   1.327       .  A
N343        N349   1.319       .  A
N343       Mn372   2.223   1_554  S
N344        C351   1.357       .  A
N345        N347   1.319       .  A
N345        N346   1.316       .  A
N345       Mn361   2.202       .  S
N346        C352   1.349       .  A
N347        N348   1.332       .  A
N347       Mn372   2.243   1_554  S
N348        C352   1.360       .  A
N349        N350   1.313       .  A
N349       Mn361   2.197       .  S
N350        C351   1.347       .  A
N353        N359   1.312       .  A
N353        N354   1.313       .  A
N353       Mn383   2.160   1_554  S
N354        C362   1.346       .  A
N355        N356   1.324       .  A
N355        N357   1.312       .  A
N355       Mn361   2.217       .  S
N356        C363   1.356       .  A
N357        N358   1.315       .  A
N357       Mn383   2.156   1_554  S
N358        C363   1.346       .  A
N359        N360   1.326       .  A
N359       Mn361   2.231       .  S
N360        C362   1.362       .  A
Mn361      Cl385   2.522   1_554  S
C362        C949   1.483       .  S
C363       C1662   1.465       .  S
N364        N365   1.327       .  A
N364        N370   1.321       .  A
N364       Mn372   2.220       .  S
N365        C373   1.356       .  A
N366        N368   1.319       .  A
N366        N367   1.314       .  A
N366       Mn384   2.197       .  S
N367        C374   1.347       .  A
N368        N369   1.333       .  A
N368       Mn372   2.244       .  S
N369        C374   1.361       .  A
N370        N371   1.315       .  A
N370       Mn384   2.213       .  S
N371        C373   1.349       .  A
Mn372      Cl385   2.588       .  S
N375        N376   1.311       .  A
N375        N381   1.314       .  A
N375       Mn383   2.155       .  S
N376        C386   1.344       .  A
N377        N378   1.329       .  A
N377        N379   1.312       .  A
N377       Mn384   2.227       .  S
N378        C387   1.362       .  A
N379        N380   1.308       .  A
N379       Mn383   2.142       .  S
N380        C387   1.341       .  A
N381        N382   1.326       .  A
N381       Mn384   2.224       .  S
N382        C386   1.358       .  A
Mn383      Cl385   2.545       .  S
Mn384      Cl385   2.527       .  S
C386       C1522   1.465       .  S
C387       C1102   1.471       .  S
N388        N389   1.310       .  A
N388        N394   1.310       .  A
N388       Mn417   2.141   1_545  S
N389        C396   1.342       .  A
N390        N392   1.312       .  A
N390        N391   1.325       .  A
N390       Mn406   2.214       .  S
N391        C397   1.357       .  A
N392        N393   1.314       .  A
N392       Mn417   2.171   1_545  S
N393        C397   1.349       .  A
N394        N395   1.325       .  A
N394       Mn406   2.209       .  S
N395        C396   1.358       .  A
C396       C1942   1.464       .  S
C397       C1578   1.473       .  S
N398        N404   1.319       .  A
N398        N399   1.333       .  A
N398       Mn428   2.254   1_545  S
N399        C407   1.363       .  A
N400        N401   1.312       .  A
N400        N402   1.320       .  A
N400       Mn406   2.195       .  S
N401        C408   1.346       .  A
N402        N403   1.330       .  A
N402       Mn428   2.238   1_545  S
N403        C408   1.359       .  A
N404        N405   1.313       .  A
N404       Mn406   2.184       .  S
N405        C407   1.344       .  A
Mn406      Cl430   2.518   1_545  S
C407        C453   1.478       .  S
N409        N410   1.312       .  A
N409        N415   1.310       .  A
N409       Mn417   2.149       .  S
N410        C418   1.347       .  A
N411        N413   1.313       .  A
N411        N412   1.327       .  A
N411       Mn429   2.225       .  S
N412        C419   1.361       .  A
N413        N414   1.314       .  A
N413       Mn417   2.170       .  S
N414        C419   1.346       .  A
N415        N416   1.325       .  A
N415       Mn429   2.216       .  S
N416        C418   1.360       .  A
Mn417      Cl430   2.557       .  S
C418       C1285   1.483       .  S
C419       C1802   1.480       .  S
N420        N421   1.331       .  A
N420        N426   1.321       .  A
N420       Mn428   2.249       .  S
N421        C431   1.360       .  A
N422        N423   1.313       .  A
N422        N424   1.321       .  A
N422       Mn429   2.198       .  S
N423        C432   1.346       .  A
N424        N425   1.329       .  A
N424       Mn428   2.239       .  S
N425        C432   1.359       .  A
N426        N427   1.316       .  A
N426       Mn429   2.198       .  S
N427        C431   1.347       .  A
Mn428      Cl430   2.582       .  S
Mn429      Cl430   2.523       .  S
C432        C576   1.470       .  S
N433        N434   1.312       .  A
N433        N439   1.312       .  A
N433       Mn462   2.163   1_554  S
N434        C441   1.347       .  A
N435        N437   1.309       .  A
N435        N436   1.325       .  A
N435       Mn451   2.216       .  S
N436        C442   1.361       .  A
N437        N438   1.308       .  A
N437       Mn462   2.127   1_554  S
N438        C442   1.340       .  A
N439        N440   1.325       .  A
N439       Mn451   2.212       .  S
N440        C441   1.359       .  A
C441       C1606   1.476       .  S
C442        C822   1.467       .  S
N443        N449   1.320       .  A
N443        N444   1.329       .  A
N443       Mn473   2.237       .  S
N444        C452   1.359       .  A
N445        N446   1.315       .  A
N445        N447   1.319       .  A
N445       Mn451   2.205       .  S
N446        C453   1.348       .  A
N447        N448   1.331       .  A
N447       Mn473   2.233       .  S
N448        C453   1.359       .  A
N449        N450   1.313       .  A
N449       Mn451   2.194       .  S
N450        C452   1.346       .  A
Mn451      Cl475   2.527       .  S
N454        N455   1.311       .  A
N454        N460   1.312       .  A
N454       Mn462   2.159       .  S
N455        C463   1.344       .  A
N456        N458   1.309       .  A
N456        N457   1.325       .  A
N456       Mn474   2.211       .  S
N457        C464   1.358       .  A
N458        N459   1.309       .  A
N458       Mn462   2.130       .  S
N459        C464   1.341       .  A
N460        N461   1.329       .  A
N460       Mn474   2.232       .  S
N461        C463   1.363       .  A
Mn462      Cl475   2.542   1_556  S
C463        C710   1.480       .  S
C464       C1466   1.455       .  S
N465        N466   1.329       .  A
N465        N471   1.321       .  A
N465       Mn473   2.240   1_556  S
N466        C476   1.360       .  A
N467        N468   1.312       .  A
N467        N469   1.319       .  A
N467       Mn474   2.191       .  S
N468        C477   1.346       .  A
N469        N470   1.329       .  A
N469       Mn473   2.227   1_556  S
N470        C477   1.357       .  A
N471        N472   1.313       .  A
N471       Mn474   2.203       .  S
N472        C476   1.346       .  A
Mn473      Cl475   2.571       .  S
Mn474      Cl475   2.529   1_556  S
C476        C532   1.471       .  S
N478        N479   1.313       .  A
N478        N484   1.313       .  A
N478       Mn507   2.164   1_455  S
N479        C486   1.345       .  A
N480        N482   1.314       .  A
N480        N481   1.327       .  A
N480       Mn496   2.231       .  S
N481        C487   1.361       .  A
N482        N483   1.313       .  A
N482       Mn507   2.171   1_455  S
N483        C487   1.348       .  A
N484        N485   1.330       .  A
N484       Mn496   2.242       .  S
N485        C486   1.364       .  A
C486       C2125   1.489       .  S
C487       C1018   1.486       .  S
N488        N494   1.321       .  A
N488        N489   1.331       .  A
N488       Mn518   2.243       .  S
N489        C497   1.359       .  A
N490        N491   1.317       .  A
N490        N492   1.322       .  A
N490       Mn496   2.214       .  S
N491        C498   1.349       .  A
N492        N493   1.330       .  A
N492       Mn518   2.245       .  S
N493        C498   1.359       .  A
N494        N495   1.317       .  A
N494       Mn496   2.213       .  S
N495        C497   1.349       .  A
Mn496      Cl520   2.537       .  S
N499        N500   1.316       .  A
N499        N505   1.312       .  A
N499       Mn507   2.177       .  S
N500        C508   1.349       .  A
N501        N503   1.314       .  A
N501        N502   1.326       .  A
N501       Mn519   2.222       .  S
N502        C509   1.358       .  A
N503        N504   1.314       .  A
N503       Mn507   2.170       .  S
N504        C509   1.347       .  A
N505        N506   1.324       .  A
N505       Mn519   2.204       .  S
N506        C508   1.355       .  A
Mn507      Cl520   2.546   1_655  S
C508        C613   1.471       .  S
C509       C1746   1.475       .  S
N510        N511   1.332       .  A
N510        N516   1.319       .  A
N510       Mn518   2.244   1_655  S
N511        C521   1.362       .  A
N512        N513   1.313       .  A
N512        N514   1.320       .  A
N512       Mn519   2.197       .  S
N513        C522   1.346       .  A
N514        N515   1.332       .  A
N514       Mn518   2.250   1_655  S
N515        C522   1.362       .  A
N516        N517   1.311       .  A
N516       Mn519   2.185       .  S
N517        C521   1.344       .  A
Mn518      Cl520   2.596       .  S
Mn519      Cl520   2.522   1_655  S
C521        C554   1.475       .  S
C522        C598   1.479       .  S
N523        N524   1.333       .  A
N523        N529   1.320       .  A
N523       Mn552   2.257   1_545  S
N524        C531   1.363       .  A
N525        N527   1.322       .  A
N525        N526   1.314       .  A
N525       Mn541   2.209       .  S
N526        C532   1.348       .  A
N527        N528   1.328       .  A
N527       Mn552   2.230   1_545  S
N528        C532   1.357       .  A
N529        N530   1.314       .  A
N529       Mn541   2.195       .  S
N530        C531   1.345       .  A
N533        N539   1.311       .  A
N533        N534   1.310       .  A
N533       Mn563   2.141   1_545  S
N534        C542   1.341       .  A
N535        N536   1.327       .  A
N535        N537   1.312       .  A
N535       Mn541   2.227       .  S
N536        C543   1.361       .  A
N537        N538   1.311       .  A
N537       Mn563   2.147   1_545  S
N538        C543   1.342       .  A
N539        N540   1.329       .  A
N539       Mn541   2.231       .  S
N540        C542   1.363       .  A
Mn541      Cl565   2.538   1_545  S
C542       C1438   1.479       .  S
C543       C1873   1.471       .  S
N544        N545   1.332       .  A
N544        N550   1.322       .  A
N544       Mn552   2.253       .  S
N545        C553   1.360       .  A
N546        N548   1.321       .  A
N546        N547   1.313       .  A
N546       Mn564   2.208       .  S
N547        C554   1.347       .  A
N548        N549   1.331       .  A
N548       Mn552   2.236       .  S
N549        C554   1.360       .  A
N550        N551   1.317       .  A
N550       Mn564   2.210       .  S
N551        C553   1.349       .  A
Mn552      Cl565   2.583       .  S
C553        C599   1.484       .  S
N555        N556   1.310       .  A
N555        N561   1.310       .  A
N555       Mn563   2.140       .  S
N556        C566   1.342       .  A
N557        N558   1.331       .  A
N557        N559   1.311       .  A
N557       Mn564   2.250       .  S
N558        C567   1.368       .  A
N559        N560   1.308       .  A
N559       Mn563   2.133       .  S
N560        C567   1.339       .  A
N561        N562   1.327       .  A
N561       Mn564   2.226       .  S
N562        C566   1.361       .  A
Mn563      Cl565   2.523       .  S
Mn564      Cl565   2.540       .  S
C566       C1774   1.472       .  S
C567       C1173   1.486       .  S
N568        N569   1.328       .  A
N568        N574   1.322       .  A
N568       Mn597   2.228       .  S
N569        C576   1.356       .  A
N570        N572   1.321       .  A
N570        N571   1.314       .  A
N570       Mn586   2.190       .  S
N571        C577   1.345       .  A
N572        N573   1.331       .  A
N572       Mn597   2.255       .  S
N573        C577   1.362       .  A
N574        N575   1.315       .  A
N574       Mn586   2.210       .  S
N575        C576   1.348       .  A
N578        N584   1.312       .  A
N578        N579   1.316       .  A
N578       Mn608   2.168       .  S
N579        C587   1.347       .  A
N580        N581   1.327       .  A
N580        N582   1.311       .  A
N580       Mn586   2.221       .  S
N581        C588   1.359       .  A
N582        N583   1.311       .  A
N582       Mn608   2.147       .  S
N583        C588   1.343       .  A
N584        N585   1.329       .  A
N584       Mn586   2.242       .  S
N585        C587   1.362       .  A
Mn586      Cl610   2.524       .  S
C587        C766   1.485       .  S
C588       C1326   1.466       .  S
N589        N590   1.331       .  A
N589        N595   1.319       .  A
N589       Mn597   2.238   1_556  S
N590        C598   1.360       .  A
N591        N593   1.319       .  A
N591        N592   1.315       .  A
N591       Mn609   2.192       .  S
N592        C599   1.347       .  A
N593        N594   1.333       .  A
N593       Mn597   2.260   1_556  S
N594        C599   1.363       .  A
N595        N596   1.314       .  A
N595       Mn609   2.203       .  S
N596        C598   1.348       .  A
Mn597      Cl610   2.579       .  S
N600        N601   1.313       .  A
N600        N606   1.313       .  A
N600       Mn608   2.161   1_556  S
N601        C611   1.345       .  A
N602        N603   1.320       .  A
N602        N604   1.311       .  A
N602       Mn609   2.188       .  S
N603        C612   1.353       .  A
N604        N605   1.310       .  A
N604       Mn608   2.147   1_556  S
N605        C612   1.345       .  A
N606        N607   1.323       .  A
N606       Mn609   2.211       .  S
N607        C611   1.357       .  A
Mn608      Cl610   2.556       .  S
Mn609      Cl610   2.527   1_556  S
C611       C1214   1.469       .  S
C612        C654   1.454       .  S
C613        C614   1.407       .  A
C613        C618   1.405       .  A
C614        C615   1.404       .  A
C614        N619   1.437       .  S
C615        C616   1.406       .  A
C615        H620   1.083       .  S
C616        C617   1.406       .  A
C616        C621   1.479       .  S
C617        C618   1.405       .  A
C617        N622   1.438       .  S
C618        H623   1.084       .  S
N619        H639   1.045       .  S
N619        H640   1.046       .  S
C621        C624   1.402       .  A
C621        C628   1.405       .  A
N622        H637   1.045       .  S
N622        H638   1.046       .  S
C624        C625   1.407       .  A
C624        H629   1.083       .  S
C625        C626   1.419       .  A
C625        N630   1.437       .  S
C626        C627   1.406       .  A
C627        C628   1.396       .  A
C627        H631   1.070       .  S
C628        N632   1.440       .  S
N630        H633   1.044       .  S
N630        H634   1.045       .  S
N632        H635   1.046       .  S
N632        H636   1.046       .  S
C641        C642   1.417       .  A
C641        C646   1.401       .  A
C642        C643   1.384       .  A
C642        N647   1.438       .  S
C643        C644   1.394       .  A
C643        H648   1.085       .  S
C644        C645   1.406       .  A
C644        C649   1.457       .  S
C645        C646   1.399       .  A
C645        N650   1.437       .  S
C646        H651   1.084       .  S
N647        H667   1.045       .  S
N647        H668   1.040       .  S
C649        C652   1.401       .  A
C649        C656   1.405       .  A
N650        H665   1.046       .  S
N650        H666   1.045       .  S
C652        C653   1.402       .  A
C652        H657   1.084       .  S
C653        C654   1.408       .  A
C653        N658   1.437       .  S
C654        C655   1.400       .  A
C655        C656   1.389       .  A
C655        H659   1.084       .  S
C656        N660   1.440       .  S
N658        H661   1.046       .  S
N658        H662   1.045       .  S
N660        H663   1.046       .  S
N660        H664   1.045       .  S
C669        C670   1.411       .  A
C669        C674   1.399       .  A
C670        C671   1.401       .  A
C670        N675   1.438       .  S
C671        C672   1.399       .  A
C671        H676   1.084       .  S
C672        C673   1.409       .  A
C672        C677   1.466       .  S
C673        C674   1.397       .  A
C673        N678   1.439       .  S
C674        H679   1.084       .  S
N675        H695   1.039       .  S
N675        H696   1.047       .  S
C677        C680   1.405       .  A
C677        C684   1.402       .  A
N678        H693   1.046       .  S
N678        H694   1.044       .  S
C680        C681   1.407       .  A
C680        H685   1.083       .  S
C681        C682   1.410       .  A
C681        N686   1.437       .  S
C682        C683   1.406       .  A
C683        C684   1.393       .  A
C683        H687   1.083       .  S
C684        N688   1.440       .  S
N686        H689   1.046       .  S
N686        H690   1.046       .  S
N688        H691   1.044       .  S
N688        H692   1.045       .  S
C697        C698   1.416       .  A
C697        C702   1.404       .  A
C698        C699   1.399       .  A
C698        N703   1.436       .  S
C699        C700   1.404       .  A
C699        H704   1.084       .  S
C700        C701   1.409       .  A
C700        C705   1.490       .  S
C701        C702   1.403       .  A
C701        N706   1.432       .  S
C702        H707   1.084       .  S
N703        H723   1.043       .  S
N703        H724   1.043       .  S
C705        C708   1.399       .  A
C705        C712   1.417       .  A
N706        H721   1.046       .  S
N706        H722   1.045       .  S
C708        C709   1.396       .  A
C708        H713   1.084       .  S
C709        C710   1.413       .  A
C709        N714   1.434       .  S
C710        C711   1.402       .  A
C711        C712   1.412       .  A
C711        H715   1.083       .  S
C712        N716   1.435       .  S
N714        H717   1.045       .  S
N714        H718   1.045       .  S
N716        H719   1.047       .  S
N716        H720   1.039       .  S
C725        C726   1.415       .  A
C725        C730   1.403       .  A
C726        C727   1.396       .  A
C726        N731   1.434       .  S
C727        C728   1.400       .  A
C727        H732   1.083       .  S
C728        C729   1.420       .  A
C728        C733   1.495       .  S
C729        C730   1.414       .  A
C729        N734   1.438       .  S
C730        H735   1.083       .  S
N731        H751   1.046   1_655  S
N731        H752   1.046   1_655  S
C733        C736   1.407       .  A
C733        C740   1.417       .  A
N734        H749   1.045       .  S
N734        H750   1.044       .  S
C736        C737   1.406       .  A
C736        H741   1.083       .  S
C737        C738   1.407       .  A
C737        N742   1.437       .  S
C738        C739   1.398       .  A
C739        C740   1.400       .  A
C739        H743   1.084       .  S
C740        N744   1.433       .  S
N742        H745   1.045       .  S
N742        H746   1.046       .  S
N744        H747   1.045       .  S
N744        H748   1.046       .  S
C753        C754   1.411       .  A
C753        C758   1.400       .  A
C754        C755   1.409       .  A
C754        N759   1.431       .  S
C755        C756   1.407       .  A
C755        H760   1.083       .  S
C756        C757   1.414       .  A
C756        C761   1.499       .  S
C757        C758   1.404       .  A
C757        N762   1.432       .  S
C758        H763   1.084       .  S
N759        H779   1.045       .  S
N759        H780   1.045       .  S
C761        C764   1.403       .  A
C761        C768   1.416       .  A
N762        H777   1.046       .  S
N762        H778   1.045       .  S
C764        C765   1.405       .  A
C764        H769   1.083       .  S
C765        C766   1.414       .  A
C765        N770   1.438       .  S
C766        C767   1.403       .  A
C767        C768   1.412       .  A
C767        H771   1.084       .  S
C768        N772   1.432       .  S
N770        H773   1.046       .  S
N770        H774   1.046       .  S
N772        H775   1.045       .  S
N772        H776   1.045       .  S
C781        C782   1.424       .  A
C781        C786   1.407       .  A
C782        C783   1.406       .  A
C782        N787   1.433       .  S
C783        C784   1.403       .  A
C783        H788   1.084       .  S
C784        C785   1.412       .  A
C784        C789   1.489       .  S
C785        C786   1.401       .  A
C785        N790   1.431       .  S
C786        H791   1.076       .  S
N787        H807   1.045       .  S
N787        H808   1.044       .  S
C789        C792   1.406       .  A
C789        C796   1.413       .  A
N790        H805   1.043       .  S
N790        H806   1.043       .  S
C792        C793   1.412       .  A
C792        H797   1.082       .  S
C793        C794   1.411       .  A
C793        N798   1.437       .  S
C794        C795   1.400       .  A
C795        C796   1.405       .  A
C795        H799   1.084       .  S
C796        N800   1.438       .  S
N798        H801   1.046       .  S
N798        H802   1.045       .  S
N800        H803   1.045       .  S
N800        H804   1.045       .  S
C809        C810   1.418       .  A
C809        C814   1.400       .  A
C810        C811   1.403       .  A
C810        N815   1.439       .  S
C811        C812   1.408       .  A
C811        H816   1.083       .  S
C812        C813   1.405       .  A
C812        C817   1.484       .  S
C813        C814   1.394       .  A
C813        N818   1.438       .  S
C814        H819   1.071       .  S
N815        H835   1.043       .  S
N815        H836   1.045       .  S
C817        C820   1.399       .  A
C817        C824   1.418       .  A
N818        H833   1.045       .  S
N818        H834   1.046       .  S
C820        C821   1.395       .  A
C820        H825   1.084       .  S
C821        C822   1.414       .  A
C821        N826   1.434       .  S
C822        C823   1.394       .  A
C823        C824   1.398       .  A
C823        H827   1.084       .  S
C824        N828   1.430       .  S
N826        H829   1.045       .  S
N826        H830   1.046       .  S
N828        H831   1.045       .  S
N828        H832   1.046       .  S
C837        C838   1.418       .  A
C837        C842   1.399       .  A
C838        C839   1.414       .  A
C838        N843   1.436       .  S
C839        C840   1.409       .  A
C839        H844   1.083       .  S
C840        C841   1.408       .  A
C840        C845   1.492   1_556  S
C841        C842   1.390       .  A
C841        N846   1.434   1_556  S
C842        H847   1.076       .  S
N843        H863   1.044       .  S
N843        H864   1.046       .  S
C845        C848   1.400       .  A
C845        C852   1.414       .  A
N846        H861   1.046   1_554  S
N846        H862   1.046   1_554  S
C848        C849   1.393       .  A
C848        H853   1.084       .  S
C849        C850   1.409       .  A
C849        N854   1.430       .  S
C850        C851   1.409       .  A
C851        C852   1.418       .  A
C851        H855   1.083       .  S
C852        N856   1.436       .  S
N854        H857   1.045       .  S
N854        H858   1.046       .  S
N856        H859   1.046       .  S
N856        H860   1.046       .  S
C865        C866   1.421       .  A
C865        C870   1.402       .  A
C866        C867   1.405       .  A
C866        N871   1.438       .  S
C867        C868   1.399       .  A
C867        H872   1.084       .  S
C868        C869   1.401       .  A
C868        C873   1.471       .  S
C869        C870   1.394       .  A
C869        N874   1.434       .  S
C870        H875   1.071       .  S
N871        H891   1.043       .  S
N871        H892   1.045       .  S
C873        C876   1.404       .  A
C873        C880   1.404       .  A
N874        H889   1.045       .  S
N874        H890   1.046       .  S
C876        C877   1.406       .  A
C876        H881   1.084       .  S
C877        C878   1.409       .  A
C877        N882   1.437       .  S
C878        C879   1.405       .  A
C879        C880   1.400       .  A
C879        H883   1.084       .  S
C880        N884   1.438       .  S
N882        H885   1.046       .  S
N882        H886   1.045       .  S
N884        H887   1.046       .  S
N884        H888   1.045       .  S
C893        C894   1.411       .  A
C893        C898   1.402       .  A
C894        C895   1.385       .  A
C894        N899   1.432       .  S
C895        C896   1.393       .  A
C895        H900   1.085       .  S
C896        C897   1.405       .  A
C896        C901   1.454       .  S
C897        C898   1.401       .  A
C897        N902   1.437       .  S
C898        H903   1.084       .  S
N899        H919   1.046       .  S
N899        H920   1.044       .  S
C901        C904   1.401       .  A
C901        C908   1.403       .  A
N902        H917   1.046       .  S
N902        H918   1.045       .  S
C904        C905   1.402       .  A
C904        H909   1.084       .  S
C905        C906   1.405       .  A
C905        N910   1.437       .  S
C906        C907   1.403       .  A
C907        C908   1.389       .  A
C907        H911   1.085       .  S
C908        N912   1.440       .  S
N910        H913   1.045       .  S
N910        H914   1.046       .  S
N912        H915   1.046       .  S
N912        H916   1.046       .  S
C921        C922   1.408       .  A
C921        C926   1.405       .  A
C922        C923   1.405       .  A
C922        N927   1.437       .  S
C923        C924   1.405       .  A
C923        H928   1.084       .  S
C924        C925   1.407       .  A
C924        C929   1.473       .  S
C925        C926   1.395       .  A
C925        N930   1.439       .  S
C926        H931   1.084       .  S
N927        H947   1.046       .  S
N927        H948   1.045       .  S
C929        C932   1.399       .  A
C929        C936   1.409       .  A
N930        H945   1.043       .  S
N930        H946   1.048       .  S
C932        C933   1.393       .  A
C932        H937   1.084       .  S
C933        C934   1.416       .  A
C933        N938   1.438       .  S
C934        C935   1.400       .  A
C935        C936   1.401       .  A
C935        H939   1.084       .  S
C936        N940   1.437       .  S
N938        H941   1.044       .  S
N938        H942   1.042       .  S
N940        H943   1.045       .  S
N940        H944   1.046       .  S
C949        C950   1.412       .  A
C949        C954   1.409       .  A
C950        C951   1.410       .  A
C950        N955   1.436       .  S
C951        C952   1.403       .  A
C951        H956   1.083       .  S
C952        C953   1.404       .  A
C952        C957   1.476       .  S
C953        C954   1.401       .  A
C953        N958   1.439       .  S
C954        H959   1.084       .  S
N955        H975   1.045       .  S
N955        H976   1.046       .  S
C957        C960   1.399       .  A
C957        C964   1.408       .  A
N958        H973   1.046       .  S
N958        H974   1.046       .  S
C960        C961   1.397       .  A
C960        H965   1.084       .  S
C961        C962   1.415       .  A
C961        N966   1.439       .  S
C962        C963   1.403       .  A
C963        C964   1.406       .  A
C963        H967   1.083       .  S
C964        N968   1.437       .  S
N966        H969   1.045       .  S
N966        H970   1.044       .  S
N968        H971   1.045       .  S
N968        H972   1.046       .  S
C977        C978   1.422       .  A
C977        C982   1.413       .  A
C978        C979   1.387       .  A
C978        N983   1.425       .  S
C979        C980   1.395       .  A
C979        H984   1.086       .  S
C980        C981   1.412       .  A
C980        C985   1.473   1_655  S
C981        C982   1.405       .  A
C981        N986   1.437       .  S
C982        H987   1.081       .  S
N983       H1003   1.040       .  S
N983       H1004   1.040       .  S
C985        C988   1.399       .  A
C985        C992   1.410       .  A
N986       H1001   1.045       .  S
N986       H1002   1.045   1_655  S
C988        C989   1.389       .  A
C988        H993   1.085       .  S
C989        C990   1.408       .  A
C989        N994   1.435       .  S
C990        C991   1.404       .  A
C991        C992   1.412       .  A
C991        H995   1.083       .  S
C992        N996   1.436       .  S
N994        H997   1.045       .  S
N994        H998   1.045       .  S
N996        H999   1.045       .  S
N996       H1000   1.046       .  S
C1005      C1006   1.422       .  A
C1005      C1010   1.403       .  A
C1006      C1007   1.400       .  A
C1006      N1011   1.439       .  S
C1007      C1008   1.402       .  A
C1007      H1012   1.084       .  S
C1008      C1009   1.411       .  A
C1008      C1013   1.488       .  S
C1009      C1010   1.407       .  A
C1009      N1014   1.437       .  S
C1010      H1015   1.084       .  S
N1011      H1031   1.040       .  S
N1011      H1032   1.046       .  S
C1013      C1016   1.408       .  A
C1013      C1020   1.406       .  A
N1014      H1029   1.045       .  S
N1014      H1030   1.046       .  S
C1016      C1017   1.412       .  A
C1016      H1021   1.084       .  S
C1017      C1018   1.414       .  A
C1017      N1022   1.437       .  S
C1018      C1019   1.407       .  A
C1019      C1020   1.397       .  A
C1019      H1023   1.084       .  S
C1020      N1024   1.433       .  S
N1022      H1025   1.046       .  S
N1022      H1026   1.045       .  S
N1024      H1027   1.045       .  S
N1024      H1028   1.046       .  S
C1033      C1034   1.415       .  A
C1033      C1038   1.405       .  A
C1034      C1035   1.403       .  A
C1034      N1039   1.438       .  S
C1035      C1036   1.404       .  A
C1035      H1040   1.084       .  S
C1036      C1037   1.409       .  A
C1036      C1041   1.488       .  S
C1037      C1038   1.406       .  A
C1037      N1042   1.437       .  S
C1038      H1043   1.081       .  S
N1039      H1059   1.043       .  S
N1039      H1060   1.046       .  S
C1041      C1044   1.406       .  A
C1041      C1048   1.407       .  A
N1042      H1057   1.046       .  S
N1042      H1058   1.045       .  S
C1044      C1045   1.413       .  A
C1044      H1049   1.083       .  S
C1045      C1046   1.412       .  A
C1045      N1050   1.436       .  S
C1046      C1047   1.408       .  A
C1047      C1048   1.405       .  A
C1047      H1051   1.084       .  S
C1048      N1052   1.439       .  S
N1050      H1053   1.045       .  S
N1050      H1054   1.046       .  S
N1052      H1055   1.046       .  S
N1052      H1056   1.046       .  S
C1061      C1062   1.409       .  A
C1061      C1066   1.407       .  A
C1062      C1063   1.408       .  A
C1062      N1067   1.437       .  S
C1063      C1064   1.407       .  A
C1063      H1068   1.082       .  S
C1064      C1065   1.405       .  A
C1064      C1069   1.484       .  S
C1065      C1066   1.404       .  A
C1065      N1070   1.438       .  S
C1066      H1071   1.084       .  S
N1067      H1087   1.046       .  S
N1067      H1088   1.045       .  S
C1069      C1072   1.407       .  A
C1069      C1076   1.407       .  A
N1070      H1085   1.046       .  S
N1070      H1086   1.046       .  S
C1072      C1073   1.413       .  A
C1072      H1077   1.083       .  S
C1073      C1074   1.411       .  A
C1073      N1078   1.431       .  S
C1074      C1075   1.408       .  A
C1075      C1076   1.389       .  A
C1075      H1079   1.071       .  S
C1076      N1080   1.434       .  S
N1078      H1081   1.046       .  S
N1078      H1082   1.045       .  S
N1080      H1083   1.046       .  S
N1080      H1084   1.043       .  S
C1089      C1090   1.407       .  A
C1089      C1094   1.400       .  A
C1090      C1091   1.409       .  A
C1090      N1095   1.437       .  S
C1091      C1092   1.406       .  A
C1091      H1096   1.083       .  S
C1092      C1093   1.408       .  A
C1092      C1097   1.476       .  S
C1093      C1094   1.390       .  A
C1093      N1098   1.440       .  S
C1094      H1099   1.079       .  S
N1095      H1115   1.045       .  S
N1095      H1116   1.044       .  S
C1097      C1100   1.397       .  A
C1097      C1104   1.413       .  A
N1098      H1113   1.046       .  S
N1098      H1114   1.045       .  S
C1100      C1101   1.390       .  A
C1100      H1105   1.085       .  S
C1101      C1102   1.411       .  A
C1101      N1106   1.435       .  S
C1102      C1103   1.404       .  A
C1103      C1104   1.412       .  A
C1103      H1107   1.083       .  S
C1104      N1108   1.438       .  S
N1106      H1109   1.046       .  S
N1106      H1110   1.046       .  S
N1108      H1111   1.045       .  S
N1108      H1112   1.044       .  S
C1117      C1118   1.408       .  A
C1117      C1122   1.398       .  A
C1118      C1119   1.415       .  A
C1118      N1123   1.435       .  S
C1119      C1120   1.408       .  A
C1119      H1124   1.083       .  S
C1120      C1121   1.411       .  A
C1120      C1125   1.484   1_556  S
C1121      C1122   1.389       .  A
C1121      N1126   1.440       .  S
C1122      H1127   1.083       .  S
N1123      H1143   1.046       .  S
N1123      H1144   1.045       .  S
C1125      C1128   1.400       .  A
C1125      C1132   1.412       .  A
N1126      H1141   1.046       .  S
N1126      H1142   1.046       .  S
C1128      C1129   1.391       .  A
C1128      H1133   1.084   1_554  S
C1129      C1130   1.407       .  A
C1129      N1134   1.436       .  S
C1130      C1131   1.408       .  A
C1131      C1132   1.414       .  A
C1131      H1135   1.083       .  S
C1132      N1136   1.437       .  S
N1134      H1137   1.044       .  S
N1134      H1138   1.046       .  S
N1136      H1139   1.045       .  S
N1136      H1140   1.046       .  S
C1145      C1146   1.410       .  A
C1145      C1150   1.395       .  A
C1146      C1147   1.417       .  A
C1146      N1151   1.435       .  S
C1147      C1148   1.408       .  A
C1147      H1152   1.083       .  S
C1148      C1149   1.406       .  A
C1148      C1153   1.478   1_455  S
C1149      C1150   1.383       .  A
C1149      N1154   1.439       .  S
C1150      H1155   1.083       .  S
N1151      H1171   1.046       .  S
N1151      H1172   1.046       .  S
C1153      C1156   1.407       .  A
C1153      C1160   1.405       .  A
N1154      H1169   1.046       .  S
N1154      H1170   1.045       .  S
C1156      C1157   1.417       .  A
C1156      H1161   1.083       .  S
C1157      C1158   1.413       .  A
C1157      N1162   1.435       .  S
C1158      C1159   1.396       .  A
C1159      C1160   1.384       .  A
C1159      H1163   1.081       .  S
C1160      N1164   1.435   1_655  S
N1162      H1165   1.046       .  S
N1162      H1166   1.045       .  S
N1164      H1167   1.046       .  S
N1164      H1168   1.046       .  S
C1173      C1174   1.424       .  A
C1173      C1178   1.398       .  A
C1174      C1175   1.403       .  A
C1174      N1179   1.440       .  S
C1175      C1176   1.399       .  A
C1175      H1180   1.084       .  S
C1176      C1177   1.412       .  A
C1176      C1181   1.494       .  S
C1177      C1178   1.406       .  A
C1177      N1182   1.426       .  S
C1178      H1183   1.084       .  S
N1179      H1199   1.046       .  S
N1179      H1200   1.046       .  S
C1181      C1184   1.406       .  A
C1181      C1188   1.413       .  A
N1182      H1197   1.041       .  S
N1182      H1198   1.046       .  S
C1184      C1185   1.408       .  A
C1184      H1189   1.083       .  S
C1185      C1186   1.410       .  A
C1185      N1190   1.437       .  S
C1186      C1187   1.405       .  A
C1187      C1188   1.402       .  A
C1187      H1191   1.083       .  S
C1188      N1192   1.433       .  S
N1190      H1193   1.045       .  S
N1190      H1194   1.046       .  S
N1192      H1195   1.046       .  S
N1192      H1196   1.046       .  S
C1201      C1202   1.419       .  A
C1201      C1206   1.404       .  A
C1202      C1203   1.405       .  A
C1202      N1207   1.438       .  S
C1203      C1204   1.402       .  A
C1203      H1208   1.084       .  S
C1204      C1205   1.406       .  A
C1204      C1209   1.468       .  S
C1205      C1206   1.383       .  A
C1205      N1210   1.435       .  S
C1206      H1211   1.078       .  S
N1207      H1227   1.043       .  S
N1207      H1228   1.045       .  S
C1209      C1212   1.400       .  A
C1209      C1216   1.401       .  A
N1210      H1225   1.042       .  S
N1210      H1226   1.044       .  S
C1212      C1213   1.406       .  A
C1212      H1217   1.082       .  S
C1213      C1214   1.411       .  A
C1213      N1218   1.437       .  S
C1214      C1215   1.404       .  A
C1215      C1216   1.394       .  A
C1215      H1219   1.084       .  S
C1216      N1220   1.433       .  S
N1218      H1221   1.045       .  S
N1218      H1222   1.046       .  S
N1220      H1223   1.045       .  S
N1220      H1224   1.046       .  S
C1229      C1230   1.414       .  A
C1229      C1234   1.404       .  A
C1230      C1231   1.412       .  A
C1230      N1235   1.437       .  S
C1231      C1232   1.403       .  A
C1231      H1236   1.084       .  S
C1232      C1233   1.402       .  A
C1232      C1237   1.473       .  S
C1233      C1234   1.393       .  A
C1233      N1238   1.433       .  S
C1234      H1239   1.084       .  S
N1235      H1255   1.045       .  S
N1235      H1256   1.046       .  S
C1237      C1240   1.405       .  A
C1237      C1244   1.402       .  A
N1238      H1253   1.045       .  S
N1238      H1254   1.046       .  S
C1240      C1241   1.406       .  A
C1240      H1245   1.083       .  S
C1241      C1242   1.414       .  A
C1241      N1246   1.432       .  S
C1242      C1243   1.399       .  A
C1243      C1244   1.389       .  A
C1243      H1247   1.072       .  S
C1244      N1248   1.433       .  S
N1246      H1249   1.046       .  S
N1246      H1250   1.044       .  S
N1248      H1251   1.045       .  S
N1248      H1252   1.046       .  S
C1257      C1258   1.410       .  A
C1257      C1262   1.406       .  A
C1258      C1259   1.401       .  A
C1258      N1263   1.432       .  S
C1259      C1260   1.401       .  A
C1259      H1264   1.084       .  S
C1260      C1261   1.410       .  A
C1260      C1265   1.477       .  S
C1261      C1262   1.400       .  A
C1261      N1266   1.432       .  S
C1262      H1267   1.083       .  S
N1263      H1283   1.046       .  S
N1263      H1284   1.044       .  S
C1265      C1268   1.406       .  A
C1265      C1272   1.401       .  A
N1266      H1281   1.045       .  S
N1266      H1282   1.045       .  S
C1268      C1269   1.407       .  A
C1268      H1273   1.081       .  S
C1269      C1270   1.405       .  A
C1269      N1274   1.431       .  S
C1270      C1271   1.407       .  A
C1271      C1272   1.399       .  A
C1271      H1275   1.084       .  S
C1272      N1276   1.432       .  S
N1274      H1277   1.046       .  S
N1274      H1278   1.042       .  S
N1276      H1279   1.046       .  S
N1276      H1280   1.046       .  S
C1285      C1286   1.413       .  A
C1285      C1290   1.409       .  A
C1286      C1287   1.409       .  A
C1286      N1291   1.437       .  S
C1287      C1288   1.403       .  A
C1287      H1292   1.083       .  S
C1288      C1289   1.404       .  A
C1288      C1293   1.473       .  S
C1289      C1290   1.398       .  A
C1289      N1294   1.439       .  S
C1290      H1295   1.083       .  S
N1291      H1311   1.045       .  S
N1291      H1312   1.045       .  S
C1293      C1296   1.402       .  A
C1293      C1300   1.404       .  A
N1294      H1309   1.047       .  S
N1294      H1310   1.044       .  S
C1296      C1297   1.405       .  A
C1296      H1301   1.084       .  S
C1297      C1298   1.418       .  A
C1297      N1302   1.438       .  S
C1298      C1299   1.404       .  A
C1299      C1300   1.397       .  A
C1299      H1303   1.080       .  S
C1300      N1304   1.439       .  S
N1302      H1305   1.046       .  S
N1302      H1306   1.042       .  S
N1304      H1307   1.046       .  S
N1304      H1308   1.045       .  S
C1313      C1314   1.413       .  A
C1313      C1318   1.402       .  A
C1314      C1315   1.395       .  A
C1314      N1319   1.433       .  S
C1315      C1316   1.403       .  A
C1315      H1320   1.084       .  S
C1316      C1317   1.406       .  A
C1316      C1321   1.475       .  S
C1317      C1318   1.397       .  A
C1317      N1322   1.432       .  S
C1318      H1323   1.084       .  S
N1319      H1339   1.045       .  S
N1319      H1340   1.041       .  S
C1321      C1324   1.405       .  A
C1321      C1328   1.407       .  A
N1322      H1337   1.046       .  S
N1322      H1338   1.046       .  S
C1324      C1325   1.404       .  A
C1324      H1329   1.082       .  S
C1325      C1326   1.406       .  A
C1325      N1330   1.437       .  S
C1326      C1327   1.404       .  A
C1327      C1328   1.399       .  A
C1327      H1331   1.084       .  S
C1328      N1332   1.438       .  S
N1330      H1333   1.047       .  S
N1330      H1334   1.044       .  S
N1332      H1335   1.046       .  S
N1332      H1336   1.045       .  S
C1341      C1342   1.413       .  A
C1341      C1346   1.400       .  A
C1342      C1343   1.393       .  A
C1342      N1347   1.433       .  S
C1343      C1344   1.400       .  A
C1343      H1348   1.084       .  S
C1344      C1345   1.424       .  A
C1344      C1349   1.498       .  S
C1345      C1346   1.414       .  A
C1345      N1350   1.439       .  S
C1346      H1351   1.083       .  S
N1347      H1367   1.045       .  S
N1347      H1368   1.046       .  S
C1349      C1352   1.405       .  A
C1349      C1356   1.421       .  A
N1350      H1365   1.048       .  S
N1350      H1366   1.040       .  S
C1352      C1353   1.400       .  A
C1352      H1357   1.082       .  S
C1353      C1354   1.417       .  A
C1353      N1358   1.438       .  S
C1354      C1355   1.396       .  A
C1355      C1356   1.403       .  A
C1355      H1359   1.083       .  S
C1356      N1360   1.439       .  S
N1358      H1361   1.044       .  S
N1358      H1362   1.045       .  S
N1360      H1363   1.048       .  S
N1360      H1364   1.044       .  S
C1369      C1370   1.409       .  A
C1369      C1374   1.398       .  A
C1370      C1371   1.395       .  A
C1370      N1375   1.439       .  S
C1371      C1372   1.403       .  A
C1371      H1376   1.083       .  S
C1372      C1373   1.422       .  A
C1372      C1377   1.488       .  S
C1373      C1374   1.405       .  A
C1373      N1378   1.439       .  S
C1374      H1379   1.084       .  S
N1375      H1395   1.048       .  S
N1375      H1396   1.043       .  S
C1377      C1380   1.401       .  A
C1377      C1384   1.417       .  A
N1378      H1393   1.048       .  S
N1378      H1394   1.036       .  S
C1380      C1381   1.395       .  A
C1380      H1385   1.082       .  S
C1381      C1382   1.421       .  A
C1381      N1386   1.438       .  S
C1382      C1383   1.398       .  A
C1383      C1384   1.399       .  A
C1383      H1387   1.084       .  S
C1384      N1388   1.439       .  S
N1386      H1389   1.047       .  S
N1386      H1390   1.037       .  S
N1388      H1391   1.043       .  S
N1388      H1392   1.048       .  S
C1397      C1398   1.417       .  A
C1397      C1402   1.412       .  A
C1398      C1399   1.391       .  A
C1398      N1403   1.433       .  S
C1399      C1400   1.402       .  A
C1399      H1404   1.085   1_554  S
C1400      C1401   1.416       .  A
C1400      C1405   1.496   1_554  S
C1401      C1402   1.412       .  A
C1401      N1406   1.430       .  S
C1402      H1407   1.083       .  S
N1403      H1423   1.039       .  S
N1403      H1424   1.042       .  S
C1405      C1408   1.399       .  A
C1405      C1412   1.418       .  A
N1406      H1421   1.042       .  S
N1406      H1422   1.045       .  S
C1408      C1409   1.392       .  A
C1408      H1413   1.086       .  S
C1409      C1410   1.414       .  A
C1409      N1414   1.432       .  S
C1410      C1411   1.412       .  A
C1411      C1412   1.415       .  A
C1411      H1415   1.083       .  S
C1412      N1416   1.430       .  S
N1414      H1417   1.045       .  S
N1414      H1418   1.046       .  S
N1416      H1419   1.043       .  S
N1416      H1420   1.045       .  S
C1425      C1426   1.420       .  A
C1425      C1430   1.411       .  A
C1426      C1427   1.397       .  A
C1426      N1431   1.426       .  S
C1427      C1428   1.395       .  A
C1427      H1432   1.085       .  S
C1428      C1429   1.408       .  A
C1428      C1433   1.478       .  S
C1429      C1430   1.404       .  A
C1429      N1434   1.432       .  S
C1430      H1435   1.084       .  S
N1431      H1451   1.044       .  S
N1431      H1452   1.047       .  S
C1433      C1436   1.395       .  A
C1433      C1440   1.412       .  A
N1434      H1449   1.041       .  S
N1434      H1450   1.047       .  S
C1436      C1437   1.402       .  A
C1436      H1441   1.084       .  S
C1437      C1438   1.420       .  A
C1437      N1442   1.438       .  S
C1438      C1439   1.397       .  A
C1439      C1440   1.406       .  A
C1439      H1443   1.084       .  S
C1440      N1444   1.431       .  S
N1442      H1445   1.045       .  S
N1442      H1446   1.046       .  S
N1444      H1447   1.047       .  S
N1444      H1448   1.041       .  S
C1453      C1454   1.420       .  A
C1453      C1458   1.408       .  A
C1454      C1455   1.383       .  A
C1454      N1459   1.434       .  S
C1455      C1456   1.394       .  A
C1455      H1460   1.084       .  S
C1456      C1457   1.409       .  A
C1456      C1461   1.478       .  S
C1457      C1458   1.409       .  A
C1457      N1462   1.437       .  S
C1458      H1463   1.084       .  S
N1459      H1479   1.048       .  S
N1459      H1480   1.035       .  S
C1461      C1464   1.406       .  A
C1461      C1468   1.409       .  A
N1462      H1477   1.047       .  S
N1462      H1478   1.044       .  S
C1464      C1465   1.407       .  A
C1464      H1469   1.083       .  S
C1465      C1466   1.406       .  A
C1465      N1470   1.437       .  S
C1466      C1467   1.396       .  A
C1467      C1468   1.390       .  A
C1467      H1471   1.085       .  S
C1468      N1472   1.433       .  S
N1470      H1473   1.046       .  S
N1470      H1474   1.046       .  S
N1472      H1475   1.045       .  S
N1472      H1476   1.043       .  S
C1481      C1482   1.407       .  A
C1481      C1486   1.405       .  A
C1482      C1483   1.397       .  A
C1482      N1487   1.429       .  S
C1483      C1484   1.400       .  A
C1483      H1488   1.084       .  S
C1484      C1485   1.408       .  A
C1484      C1489   1.479       .  S
C1485      C1486   1.408       .  A
C1485      N1490   1.437       .  S
C1486      H1491   1.083       .  S
N1487      H1507   1.046       .  S
N1487      H1508   1.044       .  S
C1489      C1492   1.407       .  A
C1489      C1496   1.403       .  A
N1490      H1505   1.045       .  S
N1490      H1506   1.046       .  S
C1492      C1493   1.414       .  A
C1492      H1497   1.084       .  S
C1493      C1494   1.414       .  A
C1493      N1498   1.436       .  S
C1494      C1495   1.409       .  A
C1495      C1496   1.395       .  A
C1495      H1499   1.083       .  S
C1496      N1500   1.440       .  S
N1498      H1501   1.047       .  S
N1498      H1502   1.044       .  S
N1500      H1503   1.045       .  S
N1500      H1504   1.046       .  S
C1509      C1510   1.408       .  A
C1509      C1514   1.400       .  A
C1510      C1511   1.403       .  A
C1510      N1515   1.432       .  S
C1511      C1512   1.405       .  A
C1511      H1516   1.084       .  S
C1512      C1513   1.409       .  A
C1512      C1517   1.480       .  S
C1513      C1514   1.396       .  A
C1513      N1518   1.433       .  S
C1514      H1519   1.084       .  S
N1515      H1535   1.043       .  S
N1515      H1536   1.045       .  S
C1517      C1520   1.400       .  A
C1517      C1524   1.414       .  A
N1518      H1533   1.046       .  S
N1518      H1534   1.045       .  S
C1520      C1521   1.398       .  A
C1520      H1525   1.084       .  S
C1521      C1522   1.410       .  A
C1521      N1526   1.439       .  S
C1522      C1523   1.399       .  A
C1523      C1524   1.407       .  A
C1523      H1527   1.084       .  S
C1524      N1528   1.437       .  S
N1526      H1529   1.047       .  S
N1526      H1530   1.045       .  S
N1528      H1531   1.045       .  S
N1528      H1532   1.044       .  S
C1537      C1538   1.408       .  A
C1537      C1542   1.406       .  A
C1538      C1539   1.387       .  A
C1538      N1543   1.435       .  S
C1539      C1540   1.403       .  A
C1539      H1544   1.084       .  S
C1540      C1541   1.415       .  A
C1540      C1545   1.494       .  S
C1541      C1542   1.414       .  A
C1541      N1546   1.430       .  S
C1542      H1547   1.083       .  S
N1543      H1563   1.045       .  S
N1543      H1564   1.045       .  S
C1545      C1548   1.403   1_565  A
C1545      C1552   1.413   1_565  A
N1546      H1561   1.046       .  S
N1546      H1562   1.046       .  S
C1548      C1549   1.384       .  A
C1548      H1553   1.084   1_545  S
C1549      C1550   1.419       .  A
C1549      N1554   1.439       .  S
C1550      C1551   1.406       .  A
C1551      C1552   1.413       .  A
C1551      H1555   1.083       .  S
C1552      N1556   1.430       .  S
N1554      H1557   1.044       .  S
N1554      H1558   1.040       .  S
N1556      H1559   1.045       .  S
N1556      H1560   1.046       .  S
C1565      C1566   1.412       .  A
C1565      C1570   1.403       .  A
C1566      C1567   1.403       .  A
C1566      N1571   1.437       .  S
C1567      C1568   1.401       .  A
C1567      H1572   1.084       .  S
C1568      C1569   1.415       .  A
C1568      C1573   1.475       .  S
C1569      C1570   1.399       .  A
C1569      N1574   1.439       .  S
C1570      H1575   1.084       .  S
N1571      H1591   1.043       .  S
N1571      H1592   1.045       .  S
C1573      C1576   1.405       .  A
C1573      C1580   1.402       .  A
N1574      H1589   1.046       .  S
N1574      H1590   1.043       .  S
C1576      C1577   1.410       .  A
C1576      H1581   1.083       .  S
C1577      C1578   1.412       .  A
C1577      N1582   1.437       .  S
C1578      C1579   1.403       .  A
C1579      C1580   1.395       .  A
C1579      H1583   1.084       .  S
C1580      N1584   1.433       .  S
N1582      H1585   1.046       .  S
N1582      H1586   1.045       .  S
N1584      H1587   1.045       .  S
N1584      H1588   1.046       .  S
C1593      C1594   1.415       .  A
C1593      C1598   1.399       .  A
C1594      C1595   1.402       .  A
C1594      N1599   1.438       .  S
C1595      C1596   1.402       .  A
C1595      H1600   1.084       .  S
C1596      C1597   1.415       .  A
C1596      C1601   1.472       .  S
C1597      C1598   1.393       .  A
C1597      N1602   1.440       .  S
C1598      H1603   1.081       .  S
N1599      H1619   1.044       .  S
N1599      H1620   1.045       .  S
C1601      C1604   1.403       .  A
C1601      C1608   1.401       .  A
N1602      H1617   1.045       .  S
N1602      H1618   1.043       .  S
C1604      C1605   1.410       .  A
C1604      H1609   1.084       .  S
C1605      C1606   1.414       .  A
C1605      N1610   1.437       .  S
C1606      C1607   1.405       .  A
C1607      C1608   1.392       .  A
C1607      H1611   1.084       .  S
C1608      N1612   1.433       .  S
N1610      H1613   1.046       .  S
N1610      H1614   1.046       .  S
N1612      H1615   1.045       .  S
N1612      H1616   1.043       .  S
C1621      C1622   1.405       .  A
C1621      C1626   1.410       .  A
C1622      C1623   1.403       .  A
C1622      N1627   1.431       .  S
C1623      C1624   1.403       .  A
C1623      H1628   1.083       .  S
C1624      C1625   1.400       .  A
C1624      C1629   1.464       .  S
C1625      C1626   1.395       .  A
C1625      N1630   1.439       .  S
C1626      H1631   1.082       .  S
N1627      H1647   1.043       .  S
N1627      H1648   1.046       .  S
C1629      C1632   1.400       .  A
C1629      C1636   1.412       .  A
N1630      H1645   1.045       .  S
N1630      H1646   1.046       .  S
C1632      C1633   1.397       .  A
C1632      H1637   1.084       .  S
C1633      C1634   1.413       .  A
C1633      N1638   1.438       .  S
C1634      C1635   1.404       .  A
C1635      C1636   1.391       .  A
C1635      H1639   1.083       .  S
C1636      N1640   1.440       .  S
N1638      H1641   1.046       .  S
N1638      H1642   1.042       .  S
N1640      H1643   1.046       .  S
N1640      H1644   1.043       .  S
C1649      C1650   1.414       .  A
C1649      C1654   1.402       .  A
C1650      C1651   1.411       .  A
C1650      N1655   1.437       .  S
C1651      C1652   1.406       .  A
C1651      H1656   1.083       .  S
C1652      C1653   1.403       .  A
C1652      C1657   1.482       .  S
C1653      C1654   1.392       .  A
C1653      N1658   1.433       .  S
C1654      H1659   1.071       .  S
N1655      H1675   1.045       .  S
N1655      H1676   1.046       .  S
C1657      C1660   1.401       .  A
C1657      C1664   1.415       .  A
N1658      H1673   1.046       .  S
N1658      H1674   1.046       .  S
C1660      C1661   1.404       .  A
C1660      H1665   1.084       .  S
C1661      C1662   1.410       .  A
C1661      N1666   1.438       .  S
C1662      C1663   1.396       .  A
C1663      C1664   1.401       .  A
C1663      H1667   1.084       .  S
C1664      N1668   1.433       .  S
N1666      H1669   1.046       .  S
N1666      H1670   1.045       .  S
N1668      H1671   1.044       .  S
N1668      H1672   1.045       .  S
C1677      C1678   1.420       .  A
C1677      C1682   1.403       .  A
C1678      C1679   1.410       .  A
C1678      N1683   1.436       .  S
C1679      C1680   1.404       .  A
C1679      H1684   1.083       .  S
C1680      C1681   1.405       .  A
C1680      C1685   1.479   1_565  S
C1681      C1682   1.392       .  A
C1681      N1686   1.437       .  S
C1682      H1687   1.080       .  S
N1683      H1703   1.044       .  S
N1683      H1704   1.045       .  S
C1685      C1688   1.405       .  A
C1685      C1692   1.405       .  A
N1686      H1701   1.045       .  S
N1686      H1702   1.047       .  S
C1688      C1689   1.413       .  A
C1688      H1693   1.083       .  S
C1689      C1690   1.420       .  A
C1689      N1694   1.436       .  S
C1690      C1691   1.402       .  A
C1691      C1692   1.388       .  A
C1691      H1695   1.081       .  S
C1692      N1696   1.435       .  S
N1694      H1697   1.045       .  S
N1694      H1698   1.045       .  S
N1696      H1699   1.045       .  S
N1696      H1700   1.046       .  S
C1705      C1706   1.406       .  A
C1705      C1710   1.397       .  A
C1706      C1707   1.414       .  A
C1706      N1711   1.430       .  S
C1707      C1708   1.410       .  A
C1707      H1712   1.082       .  S
C1708      C1709   1.414       .  A
C1708      C1713   1.491   1_554  S
C1709      C1710   1.389       .  A
C1709      N1714   1.435       .  S
C1710      H1715   1.086       .  S
N1711      H1731   1.045       .  S
N1711      H1732   1.045       .  S
C1713      C1716   1.396       .  A
C1713      C1720   1.417       .  A
N1714      H1729   1.046       .  S
N1714      H1730   1.046       .  S
C1716      C1717   1.390       .  A
C1716      H1721   1.085       .  S
C1717      C1718   1.411       .  A
C1717      N1722   1.428       .  S
C1718      C1719   1.413       .  A
C1719      C1720   1.412       .  A
C1719      H1723   1.083       .  S
C1720      N1724   1.432       .  S
N1722      H1725   1.045       .  S
N1722      H1726   1.046       .  S
N1724      H1727   1.043       .  S
N1724      H1728   1.046       .  S
C1733      C1734   1.429       .  A
C1733      C1738   1.419       .  A
C1734      C1735   1.396       .  A
C1734      N1739   1.420       .  S
C1735      C1736   1.388       .  A
C1735      H1740   1.085       .  S
C1736      C1737   1.403       .  A
C1736      C1741   1.480       .  S
C1737      C1738   1.413       .  A
C1737      N1742   1.436       .  S
C1738      H1743   1.083       .  S
N1739      H1759   1.047       .  S
N1739      H1760   1.046       .  S
C1741      C1744   1.403       .  A
C1741      C1748   1.406       .  A
N1742      H1757   1.045       .  S
N1742      H1758   1.046       .  S
C1744      C1745   1.401       .  A
C1744      H1749   1.077       .  S
C1745      C1746   1.409       .  A
C1745      N1750   1.432       .  S
C1746      C1747   1.406       .  A
C1747      C1748   1.404       .  A
C1747      H1751   1.084       .  S
C1748      N1752   1.437       .  S
N1750      H1753   1.044       .  S
N1750      H1754   1.045       .  S
N1752      H1755   1.045       .  S
N1752      H1756   1.046       .  S
C1761      C1762   1.420       .  A
C1761      C1766   1.405       .  A
C1762      C1763   1.401       .  A
C1762      N1767   1.439       .  S
C1763      C1764   1.400       .  A
C1763      H1768   1.084       .  S
C1764      C1765   1.403       .  A
C1764      C1769   1.468       .  S
C1765      C1766   1.395       .  A
C1765      N1770   1.439       .  S
C1766      H1771   1.081       .  S
N1767      H1787   1.042       .  S
N1767      H1788   1.045       .  S
C1769      C1772   1.403       .  A
C1769      C1776   1.403       .  A
N1770      H1785   1.046       .  S
N1770      H1786   1.044       .  S
C1772      C1773   1.399       .  A
C1772      H1777   1.083       .  S
C1773      C1774   1.411       .  A
C1773      N1778   1.432       .  S
C1774      C1775   1.408       .  A
C1775      C1776   1.399       .  A
C1775      H1779   1.084       .  S
C1776      N1780   1.439       .  S
N1778      H1781   1.045       .  S
N1778      H1782   1.045       .  S
N1780      H1783   1.046       .  S
N1780      H1784   1.045       .  S
C1789      C1790   1.408       .  A
C1789      C1794   1.400       .  A
C1790      C1791   1.405       .  A
C1790      N1795   1.438       .  S
C1791      C1792   1.406       .  A
C1791      H1796   1.083       .  S
C1792      C1793   1.418       .  A
C1792      C1797   1.496       .  S
C1793      C1794   1.406       .  A
C1793      N1798   1.438       .  S
C1794      H1799   1.083       .  S
N1795      H1815   1.045       .  S
N1795      H1816   1.045       .  S
C1797      C1800   1.403       .  A
C1797      C1804   1.417       .  A
N1798      H1813   1.044       .  S
N1798      H1814   1.046       .  S
C1800      C1801   1.403       .  A
C1800      H1805   1.083       .  S
C1801      C1802   1.415       .  A
C1801      N1806   1.439       .  S
C1802      C1803   1.400       .  A
C1803      C1804   1.406       .  A
C1803      H1807   1.084       .  S
C1804      N1808   1.433       .  S
N1806      H1809   1.046       .  S
N1806      H1810   1.045       .  S
N1808      H1811   1.045       .  S
N1808      H1812   1.045       .  S
C1817      C1818   1.412       .  A
C1817      C1822   1.400       .  A
C1818      C1819   1.401       .  A
C1818      N1823   1.438       .  S
C1819      C1820   1.400       .  A
C1819      H1824   1.084       .  S
C1820      C1821   1.419       .  A
C1820      C1825   1.483       .  S
C1821      C1822   1.401       .  A
C1821      N1826   1.433       .  S
C1822      H1827   1.084       .  S
N1823      H1843   1.045       .  S
N1823      H1844   1.046       .  S
C1825      C1828   1.400       .  A
C1825      C1832   1.413       .  A
N1826      H1841   1.043       .  S
N1826      H1842   1.043       .  S
C1828      C1829   1.398       .  A
C1828      H1833   1.083       .  S
C1829      C1830   1.419       .  A
C1829      N1834   1.438       .  S
C1830      C1831   1.401       .  A
C1831      C1832   1.404       .  A
C1831      H1835   1.084       .  S
C1832      N1836   1.438       .  S
N1834      H1837   1.046       .  S
N1834      H1838   1.040       .  S
N1836      H1839   1.046       .  S
N1836      H1840   1.045       .  S
C1845      C1846   1.422       .  A
C1845      C1850   1.405       .  A
C1846      C1847   1.394       .  A
C1846      N1851   1.439       .  S
C1847      C1848   1.397       .  A
C1847      H1852   1.084       .  S
C1848      C1849   1.406       .  A
C1848      C1853   1.471       .  S
C1849      C1850   1.407       .  A
C1849      N1854   1.436       .  S
C1850      H1855   1.084       .  S
N1851      H1871   1.041       .  S
N1851      H1872   1.047       .  S
C1853      C1856   1.392       .  A
C1853      C1860   1.414       .  A
N1854      H1869   1.045       .  S
N1854      H1870   1.046       .  S
C1856      C1857   1.394       .  A
C1856      H1861   1.085       .  S
C1857      C1858   1.422       .  A
C1857      N1862   1.439       .  S
C1858      C1859   1.405       .  A
C1859      C1860   1.405       .  A
C1859      H1863   1.084       .  S
C1860      N1864   1.435       .  S
N1862      H1865   1.044       .  S
N1862      H1866   1.047       .  S
N1864      H1867   1.046       .  S
N1864      H1868   1.043       .  S
C1873      C1874   1.408       .  A
C1873      C1878   1.408       .  A
C1874      C1875   1.399       .  A
C1874      N1879   1.432       .  S
C1875      C1876   1.406       .  A
C1875      H1880   1.083       .  S
C1876      C1877   1.401       .  A
C1876      C1881   1.476       .  S
C1877      C1878   1.400       .  A
C1877      N1882   1.432       .  S
C1878      H1883   1.084       .  S
N1879      H1899   1.045       .  S
N1879      H1900   1.046       .  S
C1881      C1884   1.394       .  A
C1881      C1888   1.414       .  A
N1882      H1897   1.046       .  S
N1882      H1898   1.045       .  S
C1884      C1885   1.392       .  A
C1884      H1889   1.085       .  S
C1885      C1886   1.423       .  A
C1885      N1890   1.429       .  S
C1886      C1887   1.409       .  A
C1887      C1888   1.404       .  A
C1887      H1891   1.084       .  S
C1888      N1892   1.438       .  S
N1890      H1893   1.040       .  S
N1890      H1894   1.039       .  S
N1892      H1895   1.047       .  S
N1892      H1896   1.041       .  S
C1901      C1902   1.417       .  A
C1901      C1906   1.396       .  A
C1902      C1903   1.401       .  A
C1902      N1907   1.439       .  S
C1903      C1904   1.405       .  A
C1903      H1908   1.082       .  S
C1904      C1905   1.423       .  A
C1904      C1909   1.503       .  S
C1905      C1906   1.406       .  A
C1905      N1910   1.440       .  S
C1906      H1911   1.084       .  S
N1907      H1927   1.044       .  S
N1907      H1928   1.045       .  S
C1909      C1912   1.402       .  A
C1909      C1916   1.425       .  A
N1910      H1925   1.044       .  S
N1910      H1926   1.047       .  S
C1912      C1913   1.397       .  A
C1912      H1917   1.083       .  S
C1913      C1914   1.414       .  A
C1913      N1918   1.440       .  S
C1914      C1915   1.402       .  A
C1915      C1916   1.414       .  A
C1915      H1919   1.083       .  S
C1916      N1920   1.440       .  S
N1918      H1921   1.047   1_655  S
N1918      H1922   1.044   1_655  S
N1920      H1923   1.046       .  S
N1920      H1924   1.042       .  S
C1929      C1930   1.418       .  A
C1929      C1934   1.399       .  A
C1930      C1931   1.393       .  A
C1930      N1935   1.431       .  S
C1931      C1932   1.397       .  A
C1931      H1936   1.082       .  S
C1932      C1933   1.423       .  A
C1932      C1937   1.487       .  S
C1933      C1934   1.397       .  A
C1933      N1938   1.434       .  S
C1934      H1939   1.084       .  S
N1935      H1955   1.042       .  S
N1935      H1956   1.045       .  S
C1937      C1940   1.400       .  A
C1937      C1944   1.425       .  A
N1938      H1953   1.045       .  S
N1938      H1954   1.042       .  S
C1940      C1941   1.395       .  A
C1940      H1945   1.080       .  S
C1941      C1942   1.409       .  A
C1941      N1946   1.439       .  S
C1942      C1943   1.396       .  A
C1943      C1944   1.404       .  A
C1943      H1947   1.084       .  S
C1944      N1948   1.440       .  S
N1946      H1949   1.044       .  S
N1946      H1950   1.047       .  S
N1948      H1951   1.045       .  S
N1948      H1952   1.040       .  S
C1957      C1958   1.420       .  A
C1957      C1962   1.410       .  A
C1958      C1959   1.390       .  A
C1958      N1963   1.436       .  S
C1959      C1960   1.403       .  A
C1959      H1964   1.084       .  S
C1960      C1961   1.411       .  A
C1960      C1965   1.484   1_565  S
C1961      C1962   1.405       .  A
C1961      N1966   1.431       .  S
C1962      H1967   1.081       .  S
N1963      H1983   1.037       .  S
N1963      H1984   1.045       .  S
C1965      C1968   1.398       .  A
C1965      C1972   1.416       .  A
N1966      H1981   1.042       .  S
N1966      H1982   1.046       .  S
C1968      C1969   1.390       .  A
C1968      H1973   1.085   1_545  S
C1969      C1970   1.412       .  A
C1969      N1974   1.437       .  S
C1970      C1971   1.409       .  A
C1971      C1972   1.409       .  A
C1971      H1975   1.083       .  S
C1972      N1976   1.430       .  S
N1974      H1977   1.045       .  S
N1974      H1978   1.043       .  S
N1976      H1979   1.042       .  S
N1976      H1980   1.046       .  S
C1985      C1986   1.408       .  A
C1985      C1990   1.400       .  A
C1986      C1987   1.399       .  A
C1986      N1991   1.438       .  S
C1987      C1988   1.402       .  A
C1987      H1992   1.084       .  S
C1988      C1989   1.416       .  A
C1988      C1993   1.485       .  S
C1989      C1990   1.408       .  A
C1989      N1994   1.438       .  S
C1990      H1995   1.084       .  S
N1991      H2011   1.046       .  S
N1991      H2012   1.045       .  S
C1993      C1996   1.404       .  A
C1993      C2000   1.412       .  A
N1994      H2009   1.046       .  S
N1994      H2010   1.043       .  S
C1996      C1997   1.400       .  A
C1996      H2001   1.084       .  S
C1997      C1998   1.418       .  A
C1997      N2002   1.436       .  S
C1998      C1999   1.401       .  A
C1999      C2000   1.399       .  A
C1999      H2003   1.084       .  S
C2000      N2004   1.438       .  S
N2002      H2005   1.044       .  S
N2002      H2006   1.041       .  S
N2004      H2007   1.042       .  S
N2004      H2008   1.049       .  S
C2013      C2014   1.416       .  A
C2013      C2018   1.402       .  A
C2014      C2015   1.399       .  A
C2014      N2019   1.437       .  S
C2015      C2016   1.401       .  A
C2015      H2020   1.084       .  S
C2016      C2017   1.415       .  A
C2016      C2021   1.477       .  S
C2017      C2018   1.400       .  A
C2017      N2022   1.439       .  S
C2018      H2023   1.084       .  S
N2019      H2039   1.042       .  S
N2019      H2040   1.043       .  S
C2021      C2024   1.406       .  A
C2021      C2028   1.403       .  A
N2022      H2037   1.046       .  S
N2022      H2038   1.042       .  S
C2024      C2025   1.410       .  A
C2024      H2029   1.082       .  S
C2025      C2026   1.413       .  A
C2025      N2030   1.437       .  S
C2026      C2027   1.408       .  A
C2027      C2028   1.397       .  A
C2027      H2031   1.083       .  S
C2028      N2032   1.439       .  S
N2030      H2033   1.046       .  S
N2030      H2034   1.045       .  S
N2032      H2035   1.047       .  S
N2032      H2036   1.045       .  S
C2041      C2042   1.414       .  A
C2041      C2046   1.407       .  A
C2042      C2043   1.415       .  A
C2042      N2047   1.436       .  S
C2043      C2044   1.405       .  A
C2043      H2048   1.082       .  S
C2044      C2045   1.401       .  A
C2044      C2049   1.478       .  S
C2045      C2046   1.391       .  A
C2045      N2050   1.434       .  S
C2046      H2051   1.083       .  S
N2047      H2067   1.045       .  S
N2047      H2068   1.046       .  S
C2049      C2052   1.401       .  A
C2049      C2056   1.403       .  A
N2050      H2065   1.045       .  S
N2050      H2066   1.045       .  S
C2052      C2053   1.410       .  A
C2052      H2057   1.083       .  S
C2053      C2054   1.422       .  A
C2053      N2058   1.438       .  S
C2054      C2055   1.402       .  A
C2055      C2056   1.392       .  A
C2055      H2059   1.073       .  S
C2056      N2060   1.434       .  S
N2058      H2061   1.046       .  S
N2058      H2062   1.043       .  S
N2060      H2063   1.045       .  S
N2060      H2064   1.045       .  S
C2069      C2070   1.421       .  A
C2069      C2074   1.401       .  A
C2070      C2071   1.387       .  A
C2070      N2075   1.440       .  S
C2071      C2072   1.396       .  A
C2071      H2076   1.085       .  S
C2072      C2073   1.406       .  A
C2072      C2077   1.467       .  S
C2073      C2074   1.398       .  A
C2073      N2078   1.432       .  S
C2074      H2079   1.084       .  S
N2075      H2095   1.040       .  S
N2075      H2096   1.047       .  S
C2077      C2080   1.407       .  A
C2077      C2084   1.401       .  A
N2078      H2093   1.045       .  S
N2078      H2094   1.046       .  S
C2080      C2081   1.401       .  A
C2080      H2085   1.083       .  S
C2081      C2082   1.405       .  A
C2081      N2086   1.438       .  S
C2082      C2083   1.406       .  A
C2083      C2084   1.392       .  A
C2083      H2087   1.084       .  S
C2084      N2088   1.433       .  S
N2086      H2089   1.045       .  S
N2086      H2090   1.047       .  S
N2088      H2091   1.046       .  S
N2088      H2092   1.046       .  S
C2097      C2098   1.419       .  A
C2097      C2102   1.398       .  A
C2098      C2099   1.412       .  A
C2098      N2103   1.436       .  S
C2099      C2100   1.404       .  A
C2099      H2104   1.083       .  S
C2100      C2101   1.405       .  A
C2100      C2105   1.478   1_455  S
C2101      C2102   1.388       .  A
C2101      N2106   1.433       .  S
C2102      H2107   1.083       .  S
N2103      H2123   1.044       .  S
N2103      H2124   1.045       .  S
C2105      C2108   1.402       .  A
C2105      C2112   1.402       .  A
N2106      H2121   1.046       .  S
N2106      H2122   1.045       .  S
C2108      C2109   1.414       .  A
C2108      H2113   1.083       .  S
C2109      C2110   1.418       .  A
C2109      N2114   1.430       .  S
C2110      C2111   1.401       .  A
C2111      C2112   1.389       .  A
C2111      H2115   1.071       .  S
C2112      N2116   1.432   1_655  S
N2114      H2117   1.045       .  S
N2114      H2118   1.045       .  S
N2116      H2119   1.045   1_455  S
N2116      H2120   1.046       .  S
C2125      C2126   1.411       .  A
C2125      C2130   1.411       .  A
C2126      C2127   1.411       .  A
C2126      N2131   1.437       .  S
C2127      C2128   1.405       .  A
C2127      H2132   1.078       .  S
C2128      C2129   1.405       .  A
C2128      C2133   1.484       .  S
C2129      C2130   1.404       .  A
C2129      N2134   1.439       .  S
C2130      H2135   1.083       .  S
N2131      H2151   1.045       .  S
N2131      H2152   1.046       .  S
C2133      C2136   1.401       .  A
C2133      C2140   1.410       .  A
N2134      H2149   1.046       .  S
N2134      H2150   1.044       .  S
C2136      C2137   1.404       .  A
C2136      H2141   1.084       .  S
C2137      C2138   1.419       .  A
C2137      N2142   1.438       .  S
C2138      C2139   1.407       .  A
C2139      C2140   1.407       .  A
C2139      H2143   1.083       .  S
C2140      N2144   1.438       .  S
N2142      H2145   1.045       .  S
N2142      H2146   1.044       .  S
N2144      H2147   1.045       .  S
N2144      H2148   1.045       .  S
C2153      C2154   1.408       .  A
C2153      C2158   1.401       .  A
C2154      C2155   1.404       .  A
C2154      N2159   1.437       .  S
C2155      C2156   1.403       .  A
C2155      H2160   1.084       .  S
C2156      C2157   1.409       .  A
C2156      C2161   1.466       .  S
C2157      C2158   1.383       .  A
C2157      N2162   1.435       .  S
C2158      H2163   1.080       .  S
N2159      H2179   1.044       .  S
N2159      H2180   1.045       .  S
C2161      C2164   1.397       .  A
C2161      C2168   1.411       .  A
N2162      H2177   1.043       .  S
N2162      H2178   1.043       .  S
C2164      C2165   1.393       .  A
C2164      H2169   1.084       .  S
C2165      C2166   1.409       .  A
C2165      N2170   1.439       .  S
C2166      C2167   1.400       .  A
C2167      C2168   1.404       .  A
C2167      H2171   1.084       .  S
C2168      N2172   1.438       .  S
N2170      H2173   1.046       .  S
N2170      H2174   1.045       .  S
N2172      H2175   1.046       .  S
N2172      H2176   1.043       .  S
C2181      C2182   1.413       .  A
C2181      C2186   1.405       .  A
C2182      C2183   1.391       .  A
C2182      N2187   1.429       .  S
C2183      C2184   1.395       .  A
C2183      H2188   1.084       .  S
C2184      C2185   1.413       .  A
C2184      C2189   1.470       .  S
C2185      C2186   1.403       .  A
C2185      N2190   1.437       .  S
C2186      H2191   1.084       .  S
N2187      H2207   1.045       .  S
N2187      H2208   1.045       .  S
C2189      C2192   1.405       .  A
C2189      C2196   1.402       .  A
N2190      H2205   1.046       .  S
N2190      H2206   1.043       .  S
C2192      C2193   1.406       .  A
C2192      H2197   1.082       .  S
C2193      C2194   1.408       .  A
C2193      N2198   1.436       .  S
C2194      C2195   1.408       .  A
C2195      C2196   1.397       .  A
C2195      H2199   1.083       .  S
C2196      N2200   1.438       .  S
N2198      H2201   1.045       .  S
N2198      H2202   1.045       .  S
N2200      H2203   1.045       .  S
N2200      H2204   1.045       .  S
C2209      C2210   1.413       .  A
C2209      C2214   1.402       .  A
C2210      C2211   1.408       .  A
C2210      N2215   1.437       .  S
C2211      C2212   1.405       .  A
C2211      H2216   1.084       .  S
C2212      C2213   1.416       .  A
C2212      C2217   1.487       .  S
C2213      C2214   1.395       .  A
C2213      N2218   1.434       .  S
C2214      H2219   1.084       .  S
N2215      H2235   1.043       .  S
N2215      H2236   1.046       .  S
C2217      C2220   1.400       .  A
C2217      C2224   1.417       .  A
N2218      H2233   1.042       .  S
N2218      H2234   1.045       .  S
C2220      C2221   1.399       .  A
C2220      H2225   1.083       .  S
C2221      C2222   1.410       .  A
C2221      N2226   1.439       .  S
C2222      C2223   1.398       .  A
C2223      C2224   1.408       .  A
C2223      H2227   1.084       .  S
C2224      N2228   1.436       .  S
N2226      H2229   1.046       .  S
N2226      H2230   1.046       .  S
N2228      H2231   1.046       .  S
N2228      H2232   1.041       .  S
C2237      C2238   1.420       .  A
C2237      C2242   1.408       .  A
C2238      C2239   1.389       .  A
C2238      N2243   1.439       .  S
C2239      C2240   1.401       .  A
C2239      H2244   1.084       .  S
C2240      C2241   1.415       .  A
C2240      C2245   1.485   1_565  S
C2241      C2242   1.410       .  A
C2241      N2246   1.436       .  S
C2242      H2247   1.083       .  S
N2243      H2263   1.042       .  S
N2243      H2264   1.045       .  S
C2245      C2248   1.408       .  A
C2245      C2252   1.404       .  A
N2246      H2261   1.046       .  S
N2246      H2262   1.043       .  S
C2248      C2249   1.416       .  A
C2248      H2253   1.083       .  S
C2249      C2250   1.421       .  A
C2249      N2254   1.436       .  S
C2250      C2251   1.396       .  A
C2251      C2252   1.384       .  A
C2251      H2255   1.068       .  S
C2252      N2256   1.437   1_545  S
N2254      H2257   1.045       .  S
N2254      H2258   1.045       .  S
N2256      H2259   1.046   1_565  S
N2256      H2260   1.045       .  S
C2265      C2266   1.417       .  A
C2265      C2270   1.397       .  A
C2266      C2267   1.411       .  A
C2266      N2271   1.436       .  S
C2267      C2268   1.408       .  A
C2267      H2272   1.083       .  S
C2268      C2269   1.407       .  A
C2268      C2273   1.479   1_455  S
C2269      C2270   1.385       .  A
C2269      N2274   1.440       .  S
C2270      H2275   1.082       .  S
N2271      H2291   1.044       .  S
N2271      H2292   1.046       .  S
C2273      C2276   1.399       .  A
C2273      C2280   1.410       .  A
N2274      H2289   1.045       .  S
N2274      H2290   1.046       .  S
C2276      C2277   1.385       .  A
C2276      H2281   1.085       .  S
C2277      C2278   1.412       .  A
C2277      N2282   1.431       .  S
C2278      C2279   1.409       .  A
C2279      C2280   1.415       .  A
C2279      H2283   1.083       .  S
C2280      N2284   1.436       .  S
N2282      H2285   1.046       .  S
N2282      H2286   1.045       .  S
N2284      H2287   1.045       .  S
N2284      H2288   1.046       .  S
